<routes>
            <vType accel="1.0" decel="4.5" id="standard_car" length="5.0" minGap="2.5" maxSpeed="25" sigma="0.5" />

            <route id="W_N" edges="W2TL TL2N"/>
            <route id="W_E" edges="W2TL TL2E"/>
            <route id="W_S" edges="W2TL TL2S"/>
            <route id="N_W" edges="N2TL TL2W"/>
            <route id="N_E" edges="N2TL TL2E"/>
            <route id="N_S" edges="N2TL TL2S"/>
            <route id="E_W" edges="E2TL TL2W"/>
            <route id="E_N" edges="E2TL TL2N"/>
            <route id="E_S" edges="E2TL TL2S"/>
            <route id="S_W" edges="S2TL TL2W"/>
            <route id="S_N" edges="S2TL TL2N"/>
            <route id="S_E" edges="S2TL TL2E"/>
    <vehicle id="E_W_0" type="standard_car" route="E_W" depart="23.0" departLane="random" departSpeed="10" arrivalLane="3"> </vehicle>
    <vehicle id="E_N_1" type="standard_car" route="E_N" depart="43.0" departLane="random" departSpeed="10" arrivalLane="3"> </vehicle>
    <vehicle id="E_W_2" type="standard_car" route="E_W" depart="44.0" departLane="random" departSpeed="10" arrivalLane="2"> </vehicle>
    <vehicle id="W_E_3" type="standard_car" route="W_E" depart="47.0" departLane="random" departSpeed="10" arrivalLane="3"> </vehicle>
    <vehicle id="N_S_4" type="standard_car" route="N_S" depart="56.0" departLane="random" departSpeed="10" arrivalLane="2"> </vehicle>
    <vehicle id="W_E_5" type="standard_car" route="W_E" depart="57.0" departLane="random" departSpeed="10" arrivalLane="1"> </vehicle>
    <vehicle id="E_W_6" type="standard_car" route="E_W" depart="59.0" departLane="random" departSpeed="10" arrivalLane="1"> </vehicle>
    <vehicle id="S_N_7" type="standard_car" route="S_N" depart="63.0" departLane="random" departSpeed="10" arrivalLane="0"> </vehicle>
    <vehicle id="E_W_8" type="standard_car" route="E_W" depart="67.0" departLane="random" departSpeed="10" arrivalLane="3"> </vehicle>
    <vehicle id="W_E_9" type="standard_car" route="W_E" depart="68.0" departLane="random" departSpeed="10" arrivalLane="0"> </vehicle>
    <vehicle id="S_N_11" type="standard_car" route="S_N" depart="72.0" departLane="random" departSpeed="10" arrivalLane="3"> </vehicle>
    <vehicle id="E_W_12" type="standard_car" route="E_W" depart="72.0" departLane="random" departSpeed="10" arrivalLane="2"> </vehicle>
    <vehicle id="N_S_13" type="standard_car" route="N_S" depart="78.0" departLane="random" departSpeed="10" arrivalLane="2"> </vehicle>
    <vehicle id="W_E_14" type="standard_car" route="W_E" depart="78.0" departLane="random" departSpeed="10" arrivalLane="0"> </vehicle>
    <vehicle id="W_E_15" type="standard_car" route="W_E" depart="78.0" departLane="random" departSpeed="10" arrivalLane="2"> </vehicle>
    <vehicle id="N_E_16" type="standard_car" route="N_E" depart="78.0" departLane="random" departSpeed="10" arrivalLane="1"> </vehicle>
    <vehicle id="S_N_17" type="standard_car" route="S_N" depart="79.0" departLane="random" departSpeed="10" arrivalLane="1"> </vehicle>
    <vehicle id="E_S_18" type="standard_car" route="E_S" depart="79.0" departLane="random" departSpeed="10" arrivalLane="2"> </vehicle>
    <vehicle id="E_W_19" type="standard_car" route="E_W" depart="80.0" departLane="random" departSpeed="10" arrivalLane="2"> </vehicle>
    <vehicle id="E_W_20" type="standard_car" route="E_W" depart="81.0" departLane="random" departSpeed="10" arrivalLane="3"> </vehicle>
    <vehicle id="S_N_10" type="standard_car" route="S_N" depart="70.0" departLane="random" departSpeed="10" arrivalLane="2"> </vehicle>
    <vehicle id="W_N_21" type="standard_car" route="W_N" depart="82.0" departLane="random" departSpeed="10" arrivalLane="2"> </vehicle>
    <vehicle id="S_W_22" type="standard_car" route="S_W" depart="84.0" departLane="random" departSpeed="10" arrivalLane="2"> </vehicle>
    <vehicle id="W_E_23" type="standard_car" route="W_E" depart="84.0" departLane="random" departSpeed="10" arrivalLane="1"> </vehicle>
    <vehicle id="S_N_24" type="standard_car" route="S_N" depart="84.0" departLane="random" departSpeed="10" arrivalLane="0"> </vehicle>
    <vehicle id="W_N_25" type="standard_car" route="W_N" depart="85.0" departLane="random" departSpeed="10" arrivalLane="0"> </vehicle>
    <vehicle id="E_W_26" type="standard_car" route="E_W" depart="87.0" departLane="random" departSpeed="10" arrivalLane="1"> </vehicle>
    <vehicle id="E_W_27" type="standard_car" route="E_W" depart="88.0" departLane="random" departSpeed="10" arrivalLane="1"> </vehicle>
    <vehicle id="W_E_28" type="standard_car" route="W_E" depart="88.0" departLane="random" departSpeed="10" arrivalLane="2"> </vehicle>
    <vehicle id="W_N_29" type="standard_car" route="W_N" depart="89.0" departLane="random" departSpeed="10" arrivalLane="3"> </vehicle>
    <vehicle id="N_S_30" type="standard_car" route="N_S" depart="90.0" departLane="random" departSpeed="10" arrivalLane="1"> </vehicle>
    <vehicle id="S_N_31" type="standard_car" route="S_N" depart="90.0" departLane="random" departSpeed="10" arrivalLane="1"> </vehicle>
    <vehicle id="S_N_32" type="standard_car" route="S_N" depart="93.0" departLane="random" departSpeed="10" arrivalLane="1"> </vehicle>
    <vehicle id="E_S_33" type="standard_car" route="E_S" depart="95.0" departLane="random" departSpeed="10" arrivalLane="2"> </vehicle>
    <vehicle id="N_S_34" type="standard_car" route="N_S" depart="97.0" departLane="random" departSpeed="10" arrivalLane="1"> </vehicle>
    <vehicle id="N_S_35" type="standard_car" route="N_S" depart="98.0" departLane="random" departSpeed="10" arrivalLane="3"> </vehicle>
    <vehicle id="E_S_36" type="standard_car" route="E_S" depart="98.0" departLane="random" departSpeed="10" arrivalLane="2"> </vehicle>
    <vehicle id="N_S_37" type="standard_car" route="N_S" depart="100.0" departLane="random" departSpeed="10" arrivalLane="0"> </vehicle>
    <vehicle id="S_N_38" type="standard_car" route="S_N" depart="101.0" departLane="random" departSpeed="10" arrivalLane="1">  </vehicle>
    <vehicle id="N_S_39" type="standard_car" route="N_S" depart="101.0" departLane="random" departSpeed="10" arrivalLane="2">  </vehicle>
    <vehicle id="W_E_40" type="standard_car" route="W_E" depart="101.0" departLane="random" departSpeed="10" arrivalLane="0">  </vehicle>
    <vehicle id="E_W_41" type="standard_car" route="E_W" depart="104.0" departLane="random" departSpeed="10" arrivalLane="2">  </vehicle>
    <vehicle id="S_N_42" type="standard_car" route="S_N" depart="107.0" departLane="random" departSpeed="10" arrivalLane="0">  </vehicle>
    <vehicle id="E_N_43" type="standard_car" route="E_N" depart="108.0" departLane="random" departSpeed="10" arrivalLane="3">  </vehicle>
    <vehicle id="S_N_44" type="standard_car" route="S_N" depart="109.0" departLane="random" departSpeed="10" arrivalLane="1">  </vehicle>
    <vehicle id="S_W_45" type="standard_car" route="S_W" depart="110.0" departLane="random" departSpeed="10" arrivalLane="1">  </vehicle>
    <vehicle id="S_N_46" type="standard_car" route="S_N" depart="112.0" departLane="random" departSpeed="10" arrivalLane="0">  </vehicle>
    <vehicle id="S_N_47" type="standard_car" route="S_N" depart="115.0" departLane="random" departSpeed="10" arrivalLane="2">  </vehicle>
    <vehicle id="N_S_48" type="standard_car" route="N_S" depart="118.0" departLane="random" departSpeed="10" arrivalLane="3">  </vehicle>
    <vehicle id="E_W_49" type="standard_car" route="E_W" depart="120.0" departLane="random" departSpeed="10" arrivalLane="0">  </vehicle>
    <vehicle id="N_S_50" type="standard_car" route="N_S" depart="121.0" departLane="random" departSpeed="10" arrivalLane="3">  </vehicle>
    <vehicle id="E_W_51" type="standard_car" route="E_W" depart="121.0" departLane="random" departSpeed="10" arrivalLane="0">  </vehicle>
    <vehicle id="N_S_52" type="standard_car" route="N_S" depart="121.0" departLane="random" departSpeed="10" arrivalLane="0">  </vehicle>
    <vehicle id="N_S_53" type="standard_car" route="N_S" depart="126.0" departLane="random" departSpeed="10" arrivalLane="0">  </vehicle>
    <vehicle id="W_E_54" type="standard_car" route="W_E" depart="127.0" departLane="random" departSpeed="10" arrivalLane="2">  </vehicle>
    <vehicle id="W_E_55" type="standard_car" route="W_E" depart="127.0" departLane="random" departSpeed="10" arrivalLane="1">  </vehicle>
    <vehicle id="S_W_56" type="standard_car" route="S_W" depart="130.0" departLane="random" departSpeed="10" arrivalLane="3">  </vehicle>
    <vehicle id="W_E_57" type="standard_car" route="W_E" depart="131.0" departLane="random" departSpeed="10" arrivalLane="0">  </vehicle>
    <vehicle id="W_E_58" type="standard_car" route="W_E" depart="131.0" departLane="random" departSpeed="10" arrivalLane="3">  </vehicle>
    <vehicle id="W_E_59" type="standard_car" route="W_E" depart="132.0" departLane="random" departSpeed="10" arrivalLane="2">  </vehicle>
    <vehicle id="N_S_60" type="standard_car" route="N_S" depart="133.0" departLane="random" departSpeed="10" arrivalLane="1">  </vehicle>
    <vehicle id="N_E_61" type="standard_car" route="N_E" depart="133.0" departLane="random" departSpeed="10" arrivalLane="2">  </vehicle>
    <vehicle id="S_N_62" type="standard_car" route="S_N" depart="134.0" departLane="random" departSpeed="10" arrivalLane="2">  </vehicle>
    <vehicle id="W_E_63" type="standard_car" route="W_E" depart="134.0" departLane="random" departSpeed="10" arrivalLane="2">  </vehicle>
    <vehicle id="W_E_64" type="standard_car" route="W_E" depart="134.0" departLane="random" departSpeed="10" arrivalLane="0">  </vehicle>
    <vehicle id="W_E_65" type="standard_car" route="W_E" depart="137.0" departLane="random" departSpeed="10" arrivalLane="0">  </vehicle>
    <vehicle id="N_S_66" type="standard_car" route="N_S" depart="138.0" departLane="random" departSpeed="10" arrivalLane="0">  </vehicle>
    <vehicle id="W_E_67" type="standard_car" route="W_E" depart="138.0" departLane="random" departSpeed="10" arrivalLane="1">  </vehicle>
    <vehicle id="S_N_68" type="standard_car" route="S_N" depart="138.0" departLane="random" departSpeed="10" arrivalLane="2">  </vehicle>
    <vehicle id="E_W_69" type="standard_car" route="E_W" depart="138.0" departLane="random" departSpeed="10" arrivalLane="1">  </vehicle>
    <vehicle id="W_E_70" type="standard_car" route="W_E" depart="141.0" departLane="random" departSpeed="10" arrivalLane="2">  </vehicle>
    <vehicle id="N_S_71" type="standard_car" route="N_S" depart="141.0" departLane="random" departSpeed="10" arrivalLane="0">  </vehicle>
    <vehicle id="W_E_72" type="standard_car" route="W_E" depart="142.0" departLane="random" departSpeed="10" arrivalLane="0">  </vehicle>
    <vehicle id="W_E_73" type="standard_car" route="W_E" depart="145.0" departLane="random" departSpeed="10" arrivalLane="1">  </vehicle>
    <vehicle id="E_N_74" type="standard_car" route="E_N" depart="145.0" departLane="random" departSpeed="10" arrivalLane="3">  </vehicle>
    <vehicle id="W_E_75" type="standard_car" route="W_E" depart="145.0" departLane="random" departSpeed="10" arrivalLane="2">  </vehicle>
    <vehicle id="S_N_76" type="standard_car" route="S_N" depart="148.0" departLane="random" departSpeed="10" arrivalLane="2">  </vehicle>
    <vehicle id="N_E_77" type="standard_car" route="N_E" depart="149.0" departLane="random" departSpeed="10" arrivalLane="3">  </vehicle>
    <vehicle id="N_S_78" type="standard_car" route="N_S" depart="150.0" departLane="random" departSpeed="10" arrivalLane="2">  </vehicle>
    <vehicle id="N_S_79" type="standard_car" route="N_S" depart="150.0" departLane="random" departSpeed="10" arrivalLane="3">  </vehicle>
    <vehicle id="S_W_80" type="standard_car" route="S_W" depart="151.0" departLane="random" departSpeed="10" arrivalLane="2">  </vehicle>
    <vehicle id="S_N_81" type="standard_car" route="S_N" depart="152.0" departLane="random" departSpeed="10" arrivalLane="0">  </vehicle>
    <vehicle id="W_E_82" type="standard_car" route="W_E" depart="153.0" departLane="random" departSpeed="10" arrivalLane="1">  </vehicle>
    <vehicle id="S_W_83" type="standard_car" route="S_W" depart="154.0" departLane="random" departSpeed="10" arrivalLane="1">  </vehicle>
    <vehicle id="N_S_84" type="standard_car" route="N_S" depart="155.0" departLane="random" departSpeed="10" arrivalLane="2">  </vehicle>
    <vehicle id="E_N_85" type="standard_car" route="E_N" depart="155.0" departLane="random" departSpeed="10" arrivalLane="1">  </vehicle>
    <vehicle id="S_N_86" type="standard_car" route="S_N" depart="155.0" departLane="random" departSpeed="10" arrivalLane="2">  </vehicle>
    <vehicle id="N_E_87" type="standard_car" route="N_E" depart="156.0" departLane="random" departSpeed="10" arrivalLane="0">  </vehicle>
    <vehicle id="N_E_88" type="standard_car" route="N_E" depart="157.0" departLane="random" departSpeed="10" arrivalLane="2">  </vehicle>
    <vehicle id="E_W_89" type="standard_car" route="E_W" depart="157.0" departLane="random" departSpeed="10" arrivalLane="3">  </vehicle>
    <vehicle id="W_E_90" type="standard_car" route="W_E" depart="157.0" departLane="random" departSpeed="10" arrivalLane="2">  </vehicle>
    <vehicle id="E_N_91" type="standard_car" route="E_N" depart="157.0" departLane="random" departSpeed="10" arrivalLane="0">  </vehicle>
    <vehicle id="S_N_92" type="standard_car" route="S_N" depart="158.0" departLane="random" departSpeed="10" arrivalLane="1">  </vehicle>
    <vehicle id="N_E_93" type="standard_car" route="N_E" depart="158.0" departLane="random" departSpeed="10" arrivalLane="3">  </vehicle>
    <vehicle id="E_S_94" type="standard_car" route="E_S" depart="159.0" departLane="random" departSpeed="10" arrivalLane="0">  </vehicle>
    <vehicle id="S_N_95" type="standard_car" route="S_N" depart="159.0" departLane="random" departSpeed="10" arrivalLane="0">  </vehicle>
    <vehicle id="S_N_96" type="standard_car" route="S_N" depart="160.0" departLane="random" departSpeed="10" arrivalLane="0">  </vehicle>
    <vehicle id="E_W_97" type="standard_car" route="E_W" depart="160.0" departLane="random" departSpeed="10" arrivalLane="2">  </vehicle>
    <vehicle id="W_E_98" type="standard_car" route="W_E" depart="161.0" departLane="random" departSpeed="10" arrivalLane="2">  </vehicle>
    <vehicle id="E_W_99" type="standard_car" route="E_W" depart="163.0" departLane="random" departSpeed="10" arrivalLane="1">  </vehicle>
    <vehicle id="S_N_100" type="standard_car" route="S_N" depart="164.0" departLane="random" departSpeed="10" arrivalLane="1">  </vehicle>
    <vehicle id="W_E_101" type="standard_car" route="W_E" depart="164.0" departLane="random" departSpeed="10" arrivalLane="2">  </vehicle>
    <vehicle id="S_E_102" type="standard_car" route="S_E" depart="165.0" departLane="random" departSpeed="10" arrivalLane="0">  </vehicle>
    <vehicle id="S_N_103" type="standard_car" route="S_N" depart="166.0" departLane="random" departSpeed="10" arrivalLane="3">  </vehicle>
    <vehicle id="S_N_104" type="standard_car" route="S_N" depart="167.0" departLane="random" departSpeed="10" arrivalLane="3">  </vehicle>
    <vehicle id="S_N_105" type="standard_car" route="S_N" depart="167.0" departLane="random" departSpeed="10" arrivalLane="3">  </vehicle>
    <vehicle id="S_N_106" type="standard_car" route="S_N" depart="167.0" departLane="random" departSpeed="10" arrivalLane="2">  </vehicle>
    <vehicle id="E_W_107" type="standard_car" route="E_W" depart="168.0" departLane="random" departSpeed="10" arrivalLane="3">  </vehicle>
    <vehicle id="S_N_108" type="standard_car" route="S_N" depart="168.0" departLane="random" departSpeed="10" arrivalLane="3">  </vehicle>
    <vehicle id="E_W_109" type="standard_car" route="E_W" depart="168.0" departLane="random" departSpeed="10" arrivalLane="2">  </vehicle>
    <vehicle id="W_E_110" type="standard_car" route="W_E" depart="170.0" departLane="random" departSpeed="10" arrivalLane="0">  </vehicle>
    <vehicle id="N_S_111" type="standard_car" route="N_S" depart="171.0" departLane="random" departSpeed="10" arrivalLane="1">  </vehicle>
    <vehicle id="E_N_112" type="standard_car" route="E_N" depart="171.0" departLane="random" departSpeed="10" arrivalLane="3">  </vehicle>
    <vehicle id="S_N_113" type="standard_car" route="S_N" depart="173.0" departLane="random" departSpeed="10" arrivalLane="0">  </vehicle>
    <vehicle id="E_W_114" type="standard_car" route="E_W" depart="173.0" departLane="random" departSpeed="10" arrivalLane="2">  </vehicle>
    <vehicle id="E_W_115" type="standard_car" route="E_W" depart="173.0" departLane="random" departSpeed="10" arrivalLane="3">  </vehicle>
    <vehicle id="N_S_116" type="standard_car" route="N_S" depart="176.0" departLane="random" departSpeed="10" arrivalLane="3">  </vehicle>
    <vehicle id="E_W_117" type="standard_car" route="E_W" depart="177.0" departLane="random" departSpeed="10" arrivalLane="1">  </vehicle>
    <vehicle id="S_N_118" type="standard_car" route="S_N" depart="177.0" departLane="random" departSpeed="10" arrivalLane="1">  </vehicle>
    <vehicle id="S_N_119" type="standard_car" route="S_N" depart="178.0" departLane="random" departSpeed="10" arrivalLane="0">  </vehicle>
    <vehicle id="S_N_120" type="standard_car" route="S_N" depart="179.0" departLane="random" departSpeed="10" arrivalLane="0">  </vehicle>
    <vehicle id="S_N_121" type="standard_car" route="S_N" depart="180.0" departLane="random" departSpeed="10" arrivalLane="3">  </vehicle>
    <vehicle id="N_S_122" type="standard_car" route="N_S" depart="181.0" departLane="random" departSpeed="10" arrivalLane="3">  </vehicle>
    <vehicle id="N_S_123" type="standard_car" route="N_S" depart="184.0" departLane="random" departSpeed="10" arrivalLane="0">  </vehicle>
    <vehicle id="N_S_124" type="standard_car" route="N_S" depart="185.0" departLane="random" departSpeed="10" arrivalLane="3">  </vehicle>
    <vehicle id="S_N_125" type="standard_car" route="S_N" depart="185.0" departLane="random" departSpeed="10" arrivalLane="2">  </vehicle>
    <vehicle id="N_S_126" type="standard_car" route="N_S" depart="186.0" departLane="random" departSpeed="10" arrivalLane="3">  </vehicle>
    <vehicle id="N_S_127" type="standard_car" route="N_S" depart="188.0" departLane="random" departSpeed="10" arrivalLane="3">  </vehicle>
    <vehicle id="W_E_128" type="standard_car" route="W_E" depart="189.0" departLane="random" departSpeed="10" arrivalLane="1">  </vehicle>
    <vehicle id="W_E_129" type="standard_car" route="W_E" depart="189.0" departLane="random" departSpeed="10" arrivalLane="2">  </vehicle>
    <vehicle id="N_E_130" type="standard_car" route="N_E" depart="190.0" departLane="random" departSpeed="10" arrivalLane="1">  </vehicle>
    <vehicle id="N_S_131" type="standard_car" route="N_S" depart="191.0" departLane="random" departSpeed="10" arrivalLane="0">  </vehicle>
    <vehicle id="E_W_132" type="standard_car" route="E_W" depart="191.0" departLane="random" departSpeed="10" arrivalLane="2">  </vehicle>
    <vehicle id="W_E_133" type="standard_car" route="W_E" depart="193.0" departLane="random" departSpeed="10" arrivalLane="2">  </vehicle>
    <vehicle id="W_N_134" type="standard_car" route="W_N" depart="193.0" departLane="random" departSpeed="10" arrivalLane="2">  </vehicle>
    <vehicle id="N_S_135" type="standard_car" route="N_S" depart="194.0" departLane="random" departSpeed="10" arrivalLane="2">  </vehicle>
    <vehicle id="N_S_136" type="standard_car" route="N_S" depart="195.0" departLane="random" departSpeed="10" arrivalLane="1">  </vehicle>
    <vehicle id="E_N_137" type="standard_car" route="E_N" depart="195.0" departLane="random" departSpeed="10" arrivalLane="0">  </vehicle>
    <vehicle id="S_E_138" type="standard_car" route="S_E" depart="195.0" departLane="random" departSpeed="10" arrivalLane="0">  </vehicle>
    <vehicle id="N_S_139" type="standard_car" route="N_S" depart="196.0" departLane="random" departSpeed="10" arrivalLane="3">  </vehicle>
    <vehicle id="N_S_140" type="standard_car" route="N_S" depart="196.0" departLane="random" departSpeed="10" arrivalLane="3">  </vehicle>
    <vehicle id="N_S_141" type="standard_car" route="N_S" depart="197.0" departLane="random" departSpeed="10" arrivalLane="3">  </vehicle>
    <vehicle id="W_N_142" type="standard_car" route="W_N" depart="199.0" departLane="random" departSpeed="10" arrivalLane="0">  </vehicle>
    <vehicle id="E_W_143" type="standard_car" route="E_W" depart="201.0" departLane="random" departSpeed="10" arrivalLane="2">  </vehicle>
    <vehicle id="N_S_144" type="standard_car" route="N_S" depart="202.0" departLane="random" departSpeed="10" arrivalLane="0">  </vehicle>
    <vehicle id="W_E_145" type="standard_car" route="W_E" depart="205.0" departLane="random" departSpeed="10" arrivalLane="2">  </vehicle>
    <vehicle id="N_S_146" type="standard_car" route="N_S" depart="208.0" departLane="random" departSpeed="10" arrivalLane="1">  </vehicle>
    <vehicle id="W_E_147" type="standard_car" route="W_E" depart="209.0" departLane="random" departSpeed="10" arrivalLane="0">  </vehicle>
    <vehicle id="E_N_148" type="standard_car" route="E_N" depart="212.0" departLane="random" departSpeed="10" arrivalLane="1">  </vehicle>
    <vehicle id="N_S_149" type="standard_car" route="N_S" depart="212.0" departLane="random" departSpeed="10" arrivalLane="0">  </vehicle>
    <vehicle id="W_E_150" type="standard_car" route="W_E" depart="213.0" departLane="random" departSpeed="10" arrivalLane="1">  </vehicle>
    <vehicle id="W_N_151" type="standard_car" route="W_N" depart="214.0" departLane="random" departSpeed="10" arrivalLane="3">  </vehicle>
    <vehicle id="S_N_152" type="standard_car" route="S_N" depart="214.0" departLane="random" departSpeed="10" arrivalLane="2">  </vehicle>
    <vehicle id="W_E_153" type="standard_car" route="W_E" depart="215.0" departLane="random" departSpeed="10" arrivalLane="2">  </vehicle>
    <vehicle id="E_W_154" type="standard_car" route="E_W" depart="215.0" departLane="random" departSpeed="10" arrivalLane="0">  </vehicle>
    <vehicle id="W_S_155" type="standard_car" route="W_S" depart="216.0" departLane="random" departSpeed="10" arrivalLane="0">  </vehicle>
    <vehicle id="W_E_156" type="standard_car" route="W_E" depart="216.0" departLane="random" departSpeed="10" arrivalLane="3">  </vehicle>
    <vehicle id="N_S_157" type="standard_car" route="N_S" depart="217.0" departLane="random" departSpeed="10" arrivalLane="3">  </vehicle>
    <vehicle id="N_S_158" type="standard_car" route="N_S" depart="218.0" departLane="random" departSpeed="10" arrivalLane="0">  </vehicle>
    <vehicle id="W_E_159" type="standard_car" route="W_E" depart="218.0" departLane="random" departSpeed="10" arrivalLane="2">  </vehicle>
    <vehicle id="N_S_160" type="standard_car" route="N_S" depart="219.0" departLane="random" departSpeed="10" arrivalLane="2">  </vehicle>
    <vehicle id="W_S_161" type="standard_car" route="W_S" depart="220.0" departLane="random" departSpeed="10" arrivalLane="3">  </vehicle>
    <vehicle id="E_W_162" type="standard_car" route="E_W" depart="222.0" departLane="random" departSpeed="10" arrivalLane="2">  </vehicle>
    <vehicle id="N_W_163" type="standard_car" route="N_W" depart="223.0" departLane="random" departSpeed="10" arrivalLane="3">  </vehicle>
    <vehicle id="S_N_164" type="standard_car" route="S_N" depart="223.0" departLane="random" departSpeed="10" arrivalLane="1">  </vehicle>
    <vehicle id="S_N_165" type="standard_car" route="S_N" depart="223.0" departLane="random" departSpeed="10" arrivalLane="3">  </vehicle>
    <vehicle id="W_N_166" type="standard_car" route="W_N" depart="227.0" departLane="random" departSpeed="10" arrivalLane="2">  </vehicle>
    <vehicle id="N_S_167" type="standard_car" route="N_S" depart="227.0" departLane="random" departSpeed="10" arrivalLane="2">  </vehicle>
    <vehicle id="N_S_168" type="standard_car" route="N_S" depart="229.0" departLane="random" departSpeed="10" arrivalLane="1">  </vehicle>
    <vehicle id="W_E_169" type="standard_car" route="W_E" depart="229.0" departLane="random" departSpeed="10" arrivalLane="2">  </vehicle>
    <vehicle id="W_E_170" type="standard_car" route="W_E" depart="229.0" departLane="random" departSpeed="10" arrivalLane="0">  </vehicle>
    <vehicle id="S_N_171" type="standard_car" route="S_N" depart="229.0" departLane="random" departSpeed="10" arrivalLane="2">  </vehicle>
    <vehicle id="S_E_172" type="standard_car" route="S_E" depart="230.0" departLane="random" departSpeed="10" arrivalLane="0">  </vehicle>
    <vehicle id="N_S_173" type="standard_car" route="N_S" depart="232.0" departLane="random" departSpeed="10" arrivalLane="1">  </vehicle>
    <vehicle id="E_N_174" type="standard_car" route="E_N" depart="232.0" departLane="random" departSpeed="10" arrivalLane="2">  </vehicle>
    <vehicle id="E_W_175" type="standard_car" route="E_W" depart="232.0" departLane="random" departSpeed="10" arrivalLane="2">  </vehicle>
    <vehicle id="N_S_176" type="standard_car" route="N_S" depart="232.0" departLane="random" departSpeed="10" arrivalLane="2">  </vehicle>
    <vehicle id="S_W_177" type="standard_car" route="S_W" depart="233.0" departLane="random" departSpeed="10" arrivalLane="2">  </vehicle>
    <vehicle id="E_W_178" type="standard_car" route="E_W" depart="233.0" departLane="random" departSpeed="10" arrivalLane="2">  </vehicle>
    <vehicle id="S_N_179" type="standard_car" route="S_N" depart="233.0" departLane="random" departSpeed="10" arrivalLane="2">  </vehicle>
    <vehicle id="W_E_180" type="standard_car" route="W_E" depart="234.0" departLane="random" departSpeed="10" arrivalLane="1">  </vehicle>
    <vehicle id="E_W_181" type="standard_car" route="E_W" depart="234.0" departLane="random" departSpeed="10" arrivalLane="1">  </vehicle>
    <vehicle id="N_S_182" type="standard_car" route="N_S" depart="235.0" departLane="random" departSpeed="10" arrivalLane="3">  </vehicle>
    <vehicle id="S_W_183" type="standard_car" route="S_W" depart="236.0" departLane="random" departSpeed="10" arrivalLane="2">  </vehicle>
    <vehicle id="S_W_184" type="standard_car" route="S_W" depart="236.0" departLane="random" departSpeed="10" arrivalLane="3">  </vehicle>
    <vehicle id="N_S_185" type="standard_car" route="N_S" depart="236.0" departLane="random" departSpeed="10" arrivalLane="2">  </vehicle>
    <vehicle id="E_W_186" type="standard_car" route="E_W" depart="237.0" departLane="random" departSpeed="10" arrivalLane="0">  </vehicle>
    <vehicle id="S_N_187" type="standard_car" route="S_N" depart="237.0" departLane="random" departSpeed="10" arrivalLane="0">  </vehicle>
    <vehicle id="S_E_188" type="standard_car" route="S_E" depart="237.0" departLane="random" departSpeed="10" arrivalLane="1">  </vehicle>
    <vehicle id="E_W_189" type="standard_car" route="E_W" depart="237.0" departLane="random" departSpeed="10" arrivalLane="1">  </vehicle>
    <vehicle id="N_S_190" type="standard_car" route="N_S" depart="238.0" departLane="random" departSpeed="10" arrivalLane="2">  </vehicle>
    <vehicle id="N_S_191" type="standard_car" route="N_S" depart="238.0" departLane="random" departSpeed="10" arrivalLane="0">  </vehicle>
    <vehicle id="N_S_192" type="standard_car" route="N_S" depart="238.0" departLane="random" departSpeed="10" arrivalLane="2">  </vehicle>
    <vehicle id="N_S_193" type="standard_car" route="N_S" depart="238.0" departLane="random" departSpeed="10" arrivalLane="3">  </vehicle>
    <vehicle id="E_W_194" type="standard_car" route="E_W" depart="240.0" departLane="random" departSpeed="10" arrivalLane="0">  </vehicle>
    <vehicle id="E_N_195" type="standard_car" route="E_N" depart="240.0" departLane="random" departSpeed="10" arrivalLane="0">  </vehicle>
    <vehicle id="N_S_196" type="standard_car" route="N_S" depart="240.0" departLane="random" departSpeed="10" arrivalLane="0">  </vehicle>
    <vehicle id="N_S_197" type="standard_car" route="N_S" depart="241.0" departLane="random" departSpeed="10" arrivalLane="3">  </vehicle>
    <vehicle id="E_S_198" type="standard_car" route="E_S" depart="242.0" departLane="random" departSpeed="10" arrivalLane="3">  </vehicle>
    <vehicle id="S_N_199" type="standard_car" route="S_N" depart="242.0" departLane="random" departSpeed="10" arrivalLane="2">  </vehicle>
    <vehicle id="W_S_200" type="standard_car" route="W_S" depart="242.0" departLane="random" departSpeed="10" arrivalLane="2">  </vehicle>
    <vehicle id="S_N_201" type="standard_car" route="S_N" depart="242.0" departLane="random" departSpeed="10" arrivalLane="3">  </vehicle>
    <vehicle id="E_W_202" type="standard_car" route="E_W" depart="243.0" departLane="random" departSpeed="10" arrivalLane="1">  </vehicle>
    <vehicle id="W_E_203" type="standard_car" route="W_E" depart="243.0" departLane="random" departSpeed="10" arrivalLane="2">  </vehicle>
    <vehicle id="E_W_204" type="standard_car" route="E_W" depart="245.0" departLane="random" departSpeed="10" arrivalLane="3">  </vehicle>
    <vehicle id="N_S_205" type="standard_car" route="N_S" depart="246.0" departLane="random" departSpeed="10" arrivalLane="3">  </vehicle>
    <vehicle id="W_N_206" type="standard_car" route="W_N" depart="247.0" departLane="random" departSpeed="10" arrivalLane="3">  </vehicle>
    <vehicle id="W_E_207" type="standard_car" route="W_E" depart="247.0" departLane="random" departSpeed="10" arrivalLane="1">  </vehicle>
    <vehicle id="W_E_208" type="standard_car" route="W_E" depart="247.0" departLane="random" departSpeed="10" arrivalLane="2">  </vehicle>
    <vehicle id="W_E_209" type="standard_car" route="W_E" depart="248.0" departLane="random" departSpeed="10" arrivalLane="2">  </vehicle>
    <vehicle id="S_N_210" type="standard_car" route="S_N" depart="248.0" departLane="random" departSpeed="10" arrivalLane="0">  </vehicle>
    <vehicle id="N_S_211" type="standard_car" route="N_S" depart="250.0" departLane="random" departSpeed="10" arrivalLane="2">  </vehicle>