<routes>
            <vType accel="1.0" decel="4.5" id="standard_car" length="5.0" minGap="2.5" maxSpeed="25" sigma="0.5" />

            <route id="W_N" edges="W2TL TL2N"/>
            <route id="W_E" edges="W2TL TL2E"/>
            <route id="W_S" edges="W2TL TL2S"/>
            <route id="N_W" edges="N2TL TL2W"/>
            <route id="N_E" edges="N2TL TL2E"/>
            <route id="N_S" edges="N2TL TL2S"/>
            <route id="E_W" edges="E2TL TL2W"/>
            <route id="E_N" edges="E2TL TL2N"/>
            <route id="E_S" edges="E2TL TL2S"/>
            <route id="S_W" edges="S2TL TL2W"/>
            <route id="S_N" edges="S2TL TL2N"/>
            <route id="S_E" edges="S2TL TL2E"/>
    <vehicle id="N_S_0" type="standard_car" route="N_S" depart="115.0" departLane="random" departSpeed="10" arrivalLane="2"> <stop lane="TL2S_2" endPos="750" duration="-12"/> </vehicle>
    <vehicle id="W_E_1" type="standard_car" route="W_E" depart="121.0" departLane="random" departSpeed="10" arrivalLane="1"> <stop lane="TL2E_1" endPos="750" duration="-12"/> </vehicle>
    <vehicle id="E_W_2" type="standard_car" route="E_W" depart="223.0" departLane="random" departSpeed="10" arrivalLane="2"> <stop lane="TL2W_2" endPos="750" duration="-13"/> </vehicle>
    <vehicle id="S_N_3" type="standard_car" route="S_N" depart="236.0" departLane="random" departSpeed="10" arrivalLane="3"> <stop lane="TL2N_3" endPos="750" duration="-13"/> </vehicle>
    <vehicle id="W_E_4" type="standard_car" route="W_E" depart="358.0" departLane="random" departSpeed="10" arrivalLane="2"> <stop lane="TL2E_2" endPos="750" duration="-14"/> </vehicle>
    <vehicle id="W_E_5" type="standard_car" route="W_E" depart="374.0" departLane="random" departSpeed="10" arrivalLane="3"> <stop lane="TL2E_3" endPos="750" duration="-14"/> </vehicle>
    <vehicle id="N_W_6" type="standard_car" route="N_W" depart="510.0" departLane="random" departSpeed="10" arrivalLane="1"> <stop lane="TL2W_1" endPos="750" duration="-16"/> </vehicle>
    <vehicle id="S_N_7" type="standard_car" route="S_N" depart="541.0" departLane="random" departSpeed="10" arrivalLane="3"> <stop lane="TL2N_3" endPos="750" duration="-16"/> </vehicle>
    <vehicle id="E_W_8" type="standard_car" route="E_W" depart="598.0" departLane="random" departSpeed="10" arrivalLane="1"> <stop lane="TL2W_1" endPos="750" duration="-17"/> </vehicle>
    <vehicle id="W_E_9" type="standard_car" route="W_E" depart="604.0" departLane="random" departSpeed="10" arrivalLane="0"> <stop lane="TL2E_0" endPos="750" duration="-17"/> </vehicle>
    <vehicle id="N_S_10" type="standard_car" route="N_S" depart="636.0" departLane="random" departSpeed="10" arrivalLane="1"> <stop lane="TL2S_1" endPos="750" duration="-17"/> </vehicle>
    <vehicle id="N_S_11" type="standard_car" route="N_S" depart="685.0" departLane="random" departSpeed="10" arrivalLane="1"> <stop lane="TL2S_1" endPos="750" duration="-18"/> </vehicle>
    <vehicle id="S_N_12" type="standard_car" route="S_N" depart="716.0" departLane="random" departSpeed="10" arrivalLane="2"> <stop lane="TL2N_2" endPos="750" duration="-18"/> </vehicle>
    <vehicle id="E_W_13" type="standard_car" route="E_W" depart="748.0" departLane="random" departSpeed="10" arrivalLane="0"> <stop lane="TL2W_0" endPos="750" duration="-18"/> </vehicle>
    <vehicle id="E_W_14" type="standard_car" route="E_W" depart="754.0" departLane="random" departSpeed="10" arrivalLane="1"> <stop lane="TL2W_1" endPos="750" duration="-18"/> </vehicle>
    <vehicle id="S_N_15" type="standard_car" route="S_N" depart="761.0" departLane="random" departSpeed="10" arrivalLane="1"> <stop lane="TL2N_1" endPos="750" duration="-18"/> </vehicle>
    <vehicle id="N_S_16" type="standard_car" route="N_S" depart="766.0" departLane="random" departSpeed="10" arrivalLane="1"> <stop lane="TL2S_1" endPos="750" duration="-18"/> </vehicle>
    <vehicle id="S_N_17" type="standard_car" route="S_N" depart="814.0" departLane="random" departSpeed="10" arrivalLane="0"> <stop lane="TL2N_0" endPos="750" duration="-19"/> </vehicle>
    <vehicle id="W_E_18" type="standard_car" route="W_E" depart="842.0" departLane="random" departSpeed="10" arrivalLane="0"> <stop lane="TL2E_0" endPos="750" duration="-19"/> </vehicle>
    <vehicle id="S_N_19" type="standard_car" route="S_N" depart="843.0" departLane="random" departSpeed="10" arrivalLane="3"> <stop lane="TL2N_3" endPos="750" duration="-19"/> </vehicle>
    <vehicle id="N_E_20" type="standard_car" route="N_E" depart="849.0" departLane="random" departSpeed="10" arrivalLane="3"> <stop lane="TL2E_3" endPos="750" duration="-19"/> </vehicle>
    <vehicle id="S_N_21" type="standard_car" route="S_N" depart="887.0" departLane="random" departSpeed="10" arrivalLane="1"> <stop lane="TL2N_1" endPos="750" duration="-20"/> </vehicle>
    <vehicle id="N_S_22" type="standard_car" route="N_S" depart="924.0" departLane="random" departSpeed="10" arrivalLane="3"> <stop lane="TL2S_3" endPos="750" duration="-20"/> </vehicle>
    <vehicle id="E_W_23" type="standard_car" route="E_W" depart="975.0" departLane="random" departSpeed="10" arrivalLane="3"> <stop lane="TL2W_3" endPos="750" duration="-21"/> </vehicle>
    <vehicle id="S_W_24" type="standard_car" route="S_W" depart="978.0" departLane="random" departSpeed="10" arrivalLane="0"> <stop lane="TL2W_0" endPos="750" duration="-21"/> </vehicle>
    <vehicle id="W_E_25" type="standard_car" route="W_E" depart="992.0" departLane="random" departSpeed="10" arrivalLane="3"> <stop lane="TL2E_3" endPos="750" duration="-21"/> </vehicle>
    <vehicle id="S_N_26" type="standard_car" route="S_N" depart="1026.0" departLane="random" departSpeed="10" arrivalLane="2"> <stop lane="TL2N_2" endPos="750" duration="-21"/> </vehicle>
    <vehicle id="W_E_27" type="standard_car" route="W_E" depart="1027.0" departLane="random" departSpeed="10" arrivalLane="1"> <stop lane="TL2E_1" endPos="750" duration="-21"/> </vehicle>
    <vehicle id="S_N_28" type="standard_car" route="S_N" depart="1069.0" departLane="random" departSpeed="10" arrivalLane="3"> <stop lane="TL2N_3" endPos="750" duration="-21"/> </vehicle>
    <vehicle id="N_W_29" type="standard_car" route="N_W" depart="1093.0" departLane="random" departSpeed="10" arrivalLane="2"> <stop lane="TL2W_2" endPos="750" duration="-22"/> </vehicle>
    <vehicle id="N_S_30" type="standard_car" route="N_S" depart="1109.0" departLane="random" departSpeed="10" arrivalLane="0"> <stop lane="TL2S_0" endPos="750" duration="-22"/> </vehicle>
    <vehicle id="S_E_31" type="standard_car" route="S_E" depart="1112.0" departLane="random" departSpeed="10" arrivalLane="3"> <stop lane="TL2E_3" endPos="750" duration="-22"/> </vehicle>
    <vehicle id="E_W_32" type="standard_car" route="E_W" depart="1114.0" departLane="random" departSpeed="10" arrivalLane="0"> <stop lane="TL2W_0" endPos="750" duration="-22"/> </vehicle>
    <vehicle id="W_E_33" type="standard_car" route="W_E" depart="1132.0" departLane="random" departSpeed="10" arrivalLane="2"> <stop lane="TL2E_2" endPos="750" duration="-22"/> </vehicle>
    <vehicle id="E_S_34" type="standard_car" route="E_S" depart="1132.0" departLane="random" departSpeed="10" arrivalLane="2"> <stop lane="TL2S_2" endPos="750" duration="-22"/> </vehicle>
    <vehicle id="W_E_35" type="standard_car" route="W_E" depart="1200.0" departLane="random" departSpeed="10" arrivalLane="0"> <stop lane="TL2E_0" endPos="750" duration="-23"/> </vehicle>
    <vehicle id="E_W_36" type="standard_car" route="E_W" depart="1203.0" departLane="random" departSpeed="10" arrivalLane="0"> <stop lane="TL2W_0" endPos="750" duration="-23"/> </vehicle>
    <vehicle id="W_E_37" type="standard_car" route="W_E" depart="1209.0" departLane="random" departSpeed="10" arrivalLane="0"> <stop lane="TL2E_0" endPos="750" duration="-23"/> </vehicle>
    <vehicle id="W_E_38" type="standard_car" route="W_E" depart="1214.0" departLane="random" departSpeed="10" arrivalLane="2"> <stop lane="TL2E_2" endPos="750" duration="-23"/> </vehicle>
    <vehicle id="S_N_39" type="standard_car" route="S_N" depart="1216.0" departLane="random" departSpeed="10" arrivalLane="0"> <stop lane="TL2N_0" endPos="750" duration="-23"/> </vehicle>
    <vehicle id="S_N_40" type="standard_car" route="S_N" depart="1225.0" departLane="random" departSpeed="10" arrivalLane="1"> <stop lane="TL2N_1" endPos="750" duration="-23"/> </vehicle>
    <vehicle id="W_S_41" type="standard_car" route="W_S" depart="1237.0" departLane="random" departSpeed="10" arrivalLane="2"> <stop lane="TL2S_2" endPos="750" duration="-23"/> </vehicle>
    <vehicle id="S_N_42" type="standard_car" route="S_N" depart="1271.0" departLane="random" departSpeed="10" arrivalLane="1"> <stop lane="TL2N_1" endPos="750" duration="-23"/> </vehicle>
    <vehicle id="S_N_43" type="standard_car" route="S_N" depart="1272.0" departLane="random" departSpeed="10" arrivalLane="3"> <stop lane="TL2N_3" endPos="750" duration="-23"/> </vehicle>
    <vehicle id="E_W_44" type="standard_car" route="E_W" depart="1290.0" departLane="random" departSpeed="10" arrivalLane="2"> <stop lane="TL2W_2" endPos="750" duration="-23"/> </vehicle>
    <vehicle id="S_N_45" type="standard_car" route="S_N" depart="1309.0" departLane="random" departSpeed="10" arrivalLane="3"> <stop lane="TL2N_3" endPos="750" duration="-23"/> </vehicle>
    <vehicle id="N_E_46" type="standard_car" route="N_E" depart="1315.0" departLane="random" departSpeed="10" arrivalLane="2"> <stop lane="TL2E_2" endPos="750" duration="-23"/> </vehicle>
    <vehicle id="E_W_47" type="standard_car" route="E_W" depart="1318.0" departLane="random" departSpeed="10" arrivalLane="3"> <stop lane="TL2W_3" endPos="750" duration="-23"/> </vehicle>
    <vehicle id="N_S_48" type="standard_car" route="N_S" depart="1337.0" departLane="random" departSpeed="10" arrivalLane="1"> <stop lane="TL2S_1" endPos="750" duration="-24"/> </vehicle>
    <vehicle id="E_N_49" type="standard_car" route="E_N" depart="1340.0" departLane="random" departSpeed="10" arrivalLane="0"> <stop lane="TL2N_0" endPos="750" duration="-24"/> </vehicle>
    <vehicle id="W_E_50" type="standard_car" route="W_E" depart="1341.0" departLane="random" departSpeed="10" arrivalLane="0"> <stop lane="TL2E_0" endPos="750" duration="-24"/> </vehicle>
    <vehicle id="W_E_51" type="standard_car" route="W_E" depart="1347.0" departLane="random" departSpeed="10" arrivalLane="2"> <stop lane="TL2E_2" endPos="750" duration="-24"/> </vehicle>
    <vehicle id="N_S_52" type="standard_car" route="N_S" depart="1368.0" departLane="random" departSpeed="10" arrivalLane="1"> <stop lane="TL2S_1" endPos="750" duration="-24"/> </vehicle>
    <vehicle id="N_W_53" type="standard_car" route="N_W" depart="1371.0" departLane="random" departSpeed="10" arrivalLane="1"> <stop lane="TL2W_1" endPos="750" duration="-24"/> </vehicle>
    <vehicle id="E_W_54" type="standard_car" route="E_W" depart="1388.0" departLane="random" departSpeed="10" arrivalLane="3"> <stop lane="TL2W_3" endPos="750" duration="-24"/> </vehicle>
    <vehicle id="S_N_55" type="standard_car" route="S_N" depart="1390.0" departLane="random" departSpeed="10" arrivalLane="1"> <stop lane="TL2N_1" endPos="750" duration="-24"/> </vehicle>
    <vehicle id="W_E_56" type="standard_car" route="W_E" depart="1398.0" departLane="random" departSpeed="10" arrivalLane="0"> <stop lane="TL2E_0" endPos="750" duration="-24"/> </vehicle>
    <vehicle id="N_S_57" type="standard_car" route="N_S" depart="1430.0" departLane="random" departSpeed="10" arrivalLane="2"> <stop lane="TL2S_2" endPos="750" duration="-24"/> </vehicle>
    <vehicle id="E_W_58" type="standard_car" route="E_W" depart="1436.0" departLane="random" departSpeed="10" arrivalLane="0"> <stop lane="TL2W_0" endPos="750" duration="-24"/> </vehicle>
    <vehicle id="W_S_59" type="standard_car" route="W_S" depart="1446.0" departLane="random" departSpeed="10" arrivalLane="0"> <stop lane="TL2S_0" endPos="750" duration="-24"/> </vehicle>
    <vehicle id="S_N_60" type="standard_car" route="S_N" depart="1473.0" departLane="random" departSpeed="10" arrivalLane="1"> <stop lane="TL2N_1" endPos="750" duration="-25"/> </vehicle>
    <vehicle id="S_N_61" type="standard_car" route="S_N" depart="1474.0" departLane="random" departSpeed="10" arrivalLane="3"> <stop lane="TL2N_3" endPos="750" duration="-25"/> </vehicle>
    <vehicle id="N_S_62" type="standard_car" route="N_S" depart="1492.0" departLane="random" departSpeed="10" arrivalLane="1"> <stop lane="TL2S_1" endPos="750" duration="-25"/> </vehicle>
    <vehicle id="S_N_63" type="standard_car" route="S_N" depart="1493.0" departLane="random" departSpeed="10" arrivalLane="1"> <stop lane="TL2N_1" endPos="750" duration="-25"/> </vehicle>
    <vehicle id="E_W_64" type="standard_car" route="E_W" depart="1493.0" departLane="random" departSpeed="10" arrivalLane="0"> <stop lane="TL2W_0" endPos="750" duration="-25"/> </vehicle>
    <vehicle id="E_W_65" type="standard_car" route="E_W" depart="1512.0" departLane="random" departSpeed="10" arrivalLane="0"> <stop lane="TL2W_0" endPos="750" duration="-25"/> </vehicle>
    <vehicle id="W_E_66" type="standard_car" route="W_E" depart="1525.0" departLane="random" departSpeed="10" arrivalLane="0"> <stop lane="TL2E_0" endPos="750" duration="-25"/> </vehicle>
    <vehicle id="W_E_67" type="standard_car" route="W_E" depart="1528.0" departLane="random" departSpeed="10" arrivalLane="2"> <stop lane="TL2E_2" endPos="750" duration="-25"/> </vehicle>
    <vehicle id="S_N_68" type="standard_car" route="S_N" depart="1532.0" departLane="random" departSpeed="10" arrivalLane="2"> <stop lane="TL2N_2" endPos="750" duration="-25"/> </vehicle>
    <vehicle id="N_E_69" type="standard_car" route="N_E" depart="1532.0" departLane="random" departSpeed="10" arrivalLane="3"> <stop lane="TL2E_3" endPos="750" duration="-25"/> </vehicle>
    <vehicle id="W_E_70" type="standard_car" route="W_E" depart="1550.0" departLane="random" departSpeed="10" arrivalLane="3"> <stop lane="TL2E_3" endPos="750" duration="-25"/> </vehicle>
    <vehicle id="E_S_71" type="standard_car" route="E_S" depart="1575.0" departLane="random" departSpeed="10" arrivalLane="1"> <stop lane="TL2S_1" endPos="750" duration="-25"/> </vehicle>
    <vehicle id="E_N_72" type="standard_car" route="E_N" depart="1579.0" departLane="random" departSpeed="10" arrivalLane="2"> <stop lane="TL2N_2" endPos="750" duration="-25"/> </vehicle>
    <vehicle id="N_W_73" type="standard_car" route="N_W" depart="1589.0" departLane="random" departSpeed="10" arrivalLane="2"> <stop lane="TL2W_2" endPos="750" duration="-25"/> </vehicle>
    <vehicle id="E_W_74" type="standard_car" route="E_W" depart="1590.0" departLane="random" departSpeed="10" arrivalLane="0"> <stop lane="TL2W_0" endPos="750" duration="-25"/> </vehicle>
    <vehicle id="S_N_75" type="standard_car" route="S_N" depart="1592.0" departLane="random" departSpeed="10" arrivalLane="0"> <stop lane="TL2N_0" endPos="750" duration="-25"/> </vehicle>
    <vehicle id="N_S_76" type="standard_car" route="N_S" depart="1592.0" departLane="random" departSpeed="10" arrivalLane="2"> <stop lane="TL2S_2" endPos="750" duration="-25"/> </vehicle>
    <vehicle id="E_W_77" type="standard_car" route="E_W" depart="1599.0" departLane="random" departSpeed="10" arrivalLane="0"> <stop lane="TL2W_0" endPos="750" duration="-25"/> </vehicle>
    <vehicle id="E_S_78" type="standard_car" route="E_S" depart="1599.0" departLane="random" departSpeed="10" arrivalLane="3"> <stop lane="TL2S_3" endPos="750" duration="-25"/> </vehicle>
    <vehicle id="N_S_79" type="standard_car" route="N_S" depart="1613.0" departLane="random" departSpeed="10" arrivalLane="2"> <stop lane="TL2S_2" endPos="750" duration="-25"/> </vehicle>
    <vehicle id="E_N_80" type="standard_car" route="E_N" depart="1622.0" departLane="random" departSpeed="10" arrivalLane="2"> <stop lane="TL2N_2" endPos="750" duration="-25"/> </vehicle>
    <vehicle id="S_E_81" type="standard_car" route="S_E" depart="1633.0" departLane="random" departSpeed="10" arrivalLane="1"> <stop lane="TL2E_1" endPos="750" duration="-25"/> </vehicle>
    <vehicle id="N_S_82" type="standard_car" route="N_S" depart="1638.0" departLane="random" departSpeed="10" arrivalLane="3"> <stop lane="TL2S_3" endPos="750" duration="-25"/> </vehicle>
    <vehicle id="E_W_83" type="standard_car" route="E_W" depart="1641.0" departLane="random" departSpeed="10" arrivalLane="0"> <stop lane="TL2W_0" endPos="750" duration="-25"/> </vehicle>
    <vehicle id="N_S_84" type="standard_car" route="N_S" depart="1645.0" departLane="random" departSpeed="10" arrivalLane="1"> <stop lane="TL2S_1" endPos="750" duration="-25"/> </vehicle>
    <vehicle id="S_N_85" type="standard_car" route="S_N" depart="1649.0" departLane="random" departSpeed="10" arrivalLane="0"> <stop lane="TL2N_0" endPos="750" duration="-25"/> </vehicle>
    <vehicle id="W_E_86" type="standard_car" route="W_E" depart="1721.0" departLane="random" departSpeed="10" arrivalLane="1"> <stop lane="TL2E_1" endPos="750" duration="-26"/> </vehicle>
    <vehicle id="W_E_87" type="standard_car" route="W_E" depart="1728.0" departLane="random" departSpeed="10" arrivalLane="3"> <stop lane="TL2E_3" endPos="750" duration="-26"/> </vehicle>
    <vehicle id="N_S_88" type="standard_car" route="N_S" depart="1737.0" departLane="random" departSpeed="10" arrivalLane="2"> <stop lane="TL2S_2" endPos="750" duration="-26"/> </vehicle>
    <vehicle id="N_E_89" type="standard_car" route="N_E" depart="1752.0" departLane="random" departSpeed="10" arrivalLane="3"> <stop lane="TL2E_3" endPos="750" duration="-26"/> </vehicle>
    <vehicle id="E_W_90" type="standard_car" route="E_W" depart="1754.0" departLane="random" departSpeed="10" arrivalLane="2"> <stop lane="TL2W_2" endPos="750" duration="-26"/> </vehicle>
    <vehicle id="W_E_91" type="standard_car" route="W_E" depart="1770.0" departLane="random" departSpeed="10" arrivalLane="3"> <stop lane="TL2E_3" endPos="750" duration="-26"/> </vehicle>
    <vehicle id="N_W_92" type="standard_car" route="N_W" depart="1808.0" departLane="random" departSpeed="10" arrivalLane="1"> <stop lane="TL2W_1" endPos="750" duration="-26"/> </vehicle>
    <vehicle id="N_W_93" type="standard_car" route="N_W" depart="1840.0" departLane="random" departSpeed="10" arrivalLane="3"> <stop lane="TL2W_3" endPos="750" duration="-26"/> </vehicle>
    <vehicle id="S_W_94" type="standard_car" route="S_W" depart="1846.0" departLane="random" departSpeed="10" arrivalLane="0"> <stop lane="TL2W_0" endPos="750" duration="-26"/> </vehicle>
    <vehicle id="N_S_95" type="standard_car" route="N_S" depart="1859.0" departLane="random" departSpeed="10" arrivalLane="0"> <stop lane="TL2S_0" endPos="750" duration="-26"/> </vehicle>
    <vehicle id="E_W_96" type="standard_car" route="E_W" depart="1869.0" departLane="random" departSpeed="10" arrivalLane="1"> <stop lane="TL2W_1" endPos="750" duration="-26"/> </vehicle>
    <vehicle id="E_W_97" type="standard_car" route="E_W" depart="1873.0" departLane="random" departSpeed="10" arrivalLane="1"> <stop lane="TL2W_1" endPos="750" duration="-26"/> </vehicle>
    <vehicle id="W_E_98" type="standard_car" route="W_E" depart="1876.0" departLane="random" departSpeed="10" arrivalLane="2"> <stop lane="TL2E_2" endPos="750" duration="-26"/> </vehicle>
    <vehicle id="W_E_99" type="standard_car" route="W_E" depart="1884.0" departLane="random" departSpeed="10" arrivalLane="1"> <stop lane="TL2E_1" endPos="750" duration="-26"/> </vehicle>
    <vehicle id="S_N_100" type="standard_car" route="S_N" depart="1900.0" departLane="random" departSpeed="10" arrivalLane="3"> <stop lane="TL2N_3" endPos="750" duration="-26"/> </vehicle>
    <vehicle id="S_E_101" type="standard_car" route="S_E" depart="1912.0" departLane="random" departSpeed="10" arrivalLane="0"> <stop lane="TL2E_0" endPos="750" duration="-26"/> </vehicle>
    <vehicle id="W_E_102" type="standard_car" route="W_E" depart="1925.0" departLane="random" departSpeed="10" arrivalLane="1"> <stop lane="TL2E_1" endPos="750" duration="-26"/> </vehicle>
    <vehicle id="E_W_103" type="standard_car" route="E_W" depart="1939.0" departLane="random" departSpeed="10" arrivalLane="2"> <stop lane="TL2W_2" endPos="750" duration="-26"/> </vehicle>
    <vehicle id="W_E_104" type="standard_car" route="W_E" depart="1939.0" departLane="random" departSpeed="10" arrivalLane="0"> <stop lane="TL2E_0" endPos="750" duration="-26"/> </vehicle>
    <vehicle id="E_S_105" type="standard_car" route="E_S" depart="1945.0" departLane="random" departSpeed="10" arrivalLane="1"> <stop lane="TL2S_1" endPos="750" duration="-26"/> </vehicle>
    <vehicle id="N_S_106" type="standard_car" route="N_S" depart="1952.0" departLane="random" departSpeed="10" arrivalLane="2"> <stop lane="TL2S_2" endPos="750" duration="-26"/> </vehicle>
    <vehicle id="N_E_107" type="standard_car" route="N_E" depart="1955.0" departLane="random" departSpeed="10" arrivalLane="3"> <stop lane="TL2E_3" endPos="750" duration="-26"/> </vehicle>
    <vehicle id="W_N_108" type="standard_car" route="W_N" depart="1962.0" departLane="random" departSpeed="10" arrivalLane="3"> <stop lane="TL2N_3" endPos="750" duration="-26"/> </vehicle>
    <vehicle id="S_E_109" type="standard_car" route="S_E" depart="1983.0" departLane="random" departSpeed="10" arrivalLane="0"> <stop lane="TL2E_0" endPos="750" duration="-26"/> </vehicle>
    <vehicle id="N_S_110" type="standard_car" route="N_S" depart="2001.0" departLane="random" departSpeed="10" arrivalLane="2"> <stop lane="TL2S_2" endPos="750" duration="-26"/> </vehicle>
    <vehicle id="W_E_111" type="standard_car" route="W_E" depart="2002.0" departLane="random" departSpeed="10" arrivalLane="0"> <stop lane="TL2E_0" endPos="750" duration="-26"/> </vehicle>
    <vehicle id="E_W_112" type="standard_car" route="E_W" depart="2009.0" departLane="random" departSpeed="10" arrivalLane="1"> <stop lane="TL2W_1" endPos="750" duration="-26"/> </vehicle>
    <vehicle id="E_W_113" type="standard_car" route="E_W" depart="2025.0" departLane="random" departSpeed="10" arrivalLane="1"> <stop lane="TL2W_1" endPos="750" duration="-26"/> </vehicle>
    <vehicle id="N_S_114" type="standard_car" route="N_S" depart="2029.0" departLane="random" departSpeed="10" arrivalLane="3"> <stop lane="TL2S_3" endPos="750" duration="-26"/> </vehicle>
    <vehicle id="S_N_115" type="standard_car" route="S_N" depart="2043.0" departLane="random" departSpeed="10" arrivalLane="3"> <stop lane="TL2N_3" endPos="750" duration="-26"/> </vehicle>
    <vehicle id="S_N_116" type="standard_car" route="S_N" depart="2060.0" departLane="random" departSpeed="10" arrivalLane="2"> <stop lane="TL2N_2" endPos="750" duration="-26"/> </vehicle>
    <vehicle id="E_W_117" type="standard_car" route="E_W" depart="2073.0" departLane="random" departSpeed="10" arrivalLane="3"> <stop lane="TL2W_3" endPos="750" duration="-26"/> </vehicle>
    <vehicle id="S_E_118" type="standard_car" route="S_E" depart="2084.0" departLane="random" departSpeed="10" arrivalLane="2"> <stop lane="TL2E_2" endPos="750" duration="-26"/> </vehicle>
    <vehicle id="N_S_119" type="standard_car" route="N_S" depart="2086.0" departLane="random" departSpeed="10" arrivalLane="1"> <stop lane="TL2S_1" endPos="750" duration="-26"/> </vehicle>
    <vehicle id="W_E_120" type="standard_car" route="W_E" depart="2102.0" departLane="random" departSpeed="10" arrivalLane="3"> <stop lane="TL2E_3" endPos="750" duration="-26"/> </vehicle>
    <vehicle id="E_W_121" type="standard_car" route="E_W" depart="2113.0" departLane="random" departSpeed="10" arrivalLane="3"> <stop lane="TL2W_3" endPos="750" duration="-26"/> </vehicle>
    <vehicle id="N_S_122" type="standard_car" route="N_S" depart="2156.0" departLane="random" departSpeed="10" arrivalLane="0"> <stop lane="TL2S_0" endPos="750" duration="-26"/> </vehicle>
    <vehicle id="E_W_123" type="standard_car" route="E_W" depart="2183.0" departLane="random" departSpeed="10" arrivalLane="1"> <stop lane="TL2W_1" endPos="750" duration="-26"/> </vehicle>
    <vehicle id="E_W_124" type="standard_car" route="E_W" depart="2190.0" departLane="random" departSpeed="10" arrivalLane="3"> <stop lane="TL2W_3" endPos="750" duration="-26"/> </vehicle>
    <vehicle id="N_S_125" type="standard_car" route="N_S" depart="2199.0" departLane="random" departSpeed="10" arrivalLane="1"> <stop lane="TL2S_1" endPos="750" duration="-26"/> </vehicle>
    <vehicle id="S_N_126" type="standard_car" route="S_N" depart="2212.0" departLane="random" departSpeed="10" arrivalLane="0"> <stop lane="TL2N_0" endPos="750" duration="-26"/> </vehicle>
    <vehicle id="S_N_127" type="standard_car" route="S_N" depart="2247.0" departLane="random" departSpeed="10" arrivalLane="2"> <stop lane="TL2N_2" endPos="750" duration="-26"/> </vehicle>
    <vehicle id="E_W_128" type="standard_car" route="E_W" depart="2272.0" departLane="random" departSpeed="10" arrivalLane="2"> <stop lane="TL2W_2" endPos="750" duration="-26"/> </vehicle>
    <vehicle id="W_E_129" type="standard_car" route="W_E" depart="2274.0" departLane="random" departSpeed="10" arrivalLane="1"> <stop lane="TL2E_1" endPos="750" duration="-26"/> </vehicle>
    <vehicle id="N_S_130" type="standard_car" route="N_S" depart="2276.0" departLane="random" departSpeed="10" arrivalLane="3"> <stop lane="TL2S_3" endPos="750" duration="-26"/> </vehicle>
    <vehicle id="E_W_131" type="standard_car" route="E_W" depart="2292.0" departLane="random" departSpeed="10" arrivalLane="2"> <stop lane="TL2W_2" endPos="750" duration="-26"/> </vehicle>
    <vehicle id="S_W_132" type="standard_car" route="S_W" depart="2293.0" departLane="random" departSpeed="10" arrivalLane="3"> <stop lane="TL2W_3" endPos="750" duration="-26"/> </vehicle>
    <vehicle id="N_S_133" type="standard_car" route="N_S" depart="2303.0" departLane="random" departSpeed="10" arrivalLane="0"> <stop lane="TL2S_0" endPos="750" duration="-26"/> </vehicle>
    <vehicle id="N_S_134" type="standard_car" route="N_S" depart="2312.0" departLane="random" departSpeed="10" arrivalLane="2"> <stop lane="TL2S_2" endPos="750" duration="-26"/> </vehicle>
    <vehicle id="S_W_135" type="standard_car" route="S_W" depart="2315.0" departLane="random" departSpeed="10" arrivalLane="2"> <stop lane="TL2W_2" endPos="750" duration="-26"/> </vehicle>
    <vehicle id="N_S_136" type="standard_car" route="N_S" depart="2315.0" departLane="random" departSpeed="10" arrivalLane="2"> <stop lane="TL2S_2" endPos="750" duration="-26"/> </vehicle>
    <vehicle id="N_E_137" type="standard_car" route="N_E" depart="2321.0" departLane="random" departSpeed="10" arrivalLane="3"> <stop lane="TL2E_3" endPos="750" duration="-25"/> </vehicle>
    <vehicle id="S_N_138" type="standard_car" route="S_N" depart="2328.0" departLane="random" departSpeed="10" arrivalLane="1"> <stop lane="TL2N_1" endPos="750" duration="-25"/> </vehicle>
    <vehicle id="E_W_139" type="standard_car" route="E_W" depart="2329.0" departLane="random" departSpeed="10" arrivalLane="0"> <stop lane="TL2W_0" endPos="750" duration="-25"/> </vehicle>
    <vehicle id="E_W_140" type="standard_car" route="E_W" depart="2346.0" departLane="random" departSpeed="10" arrivalLane="2"> <stop lane="TL2W_2" endPos="750" duration="-25"/> </vehicle>
    <vehicle id="S_N_141" type="standard_car" route="S_N" depart="2346.0" departLane="random" departSpeed="10" arrivalLane="2"> <stop lane="TL2N_2" endPos="750" duration="-25"/> </vehicle>
    <vehicle id="S_E_142" type="standard_car" route="S_E" depart="2367.0" departLane="random" departSpeed="10" arrivalLane="0"> <stop lane="TL2E_0" endPos="750" duration="-25"/> </vehicle>
    <vehicle id="E_W_143" type="standard_car" route="E_W" depart="2379.0" departLane="random" departSpeed="10" arrivalLane="0"> <stop lane="TL2W_0" endPos="750" duration="-25"/> </vehicle>
    <vehicle id="E_N_144" type="standard_car" route="E_N" depart="2386.0" departLane="random" departSpeed="10" arrivalLane="2"> <stop lane="TL2N_2" endPos="750" duration="-25"/> </vehicle>
    <vehicle id="N_S_145" type="standard_car" route="N_S" depart="2435.0" departLane="random" departSpeed="10" arrivalLane="2"> <stop lane="TL2S_2" endPos="750" duration="-25"/> </vehicle>
    <vehicle id="W_E_146" type="standard_car" route="W_E" depart="2446.0" departLane="random" departSpeed="10" arrivalLane="0"> <stop lane="TL2E_0" endPos="750" duration="-25"/> </vehicle>
    <vehicle id="W_E_147" type="standard_car" route="W_E" depart="2455.0" departLane="random" departSpeed="10" arrivalLane="1"> <stop lane="TL2E_1" endPos="750" duration="-25"/> </vehicle>
    <vehicle id="N_S_148" type="standard_car" route="N_S" depart="2458.0" departLane="random" departSpeed="10" arrivalLane="0"> <stop lane="TL2S_0" endPos="750" duration="-25"/> </vehicle>
    <vehicle id="S_N_149" type="standard_car" route="S_N" depart="2465.0" departLane="random" departSpeed="10" arrivalLane="2"> <stop lane="TL2N_2" endPos="750" duration="-25"/> </vehicle>
    <vehicle id="S_N_150" type="standard_car" route="S_N" depart="2469.0" departLane="random" departSpeed="10" arrivalLane="2"> <stop lane="TL2N_2" endPos="750" duration="-25"/> </vehicle>
    <vehicle id="W_E_151" type="standard_car" route="W_E" depart="2475.0" departLane="random" departSpeed="10" arrivalLane="1"> <stop lane="TL2E_1" endPos="750" duration="-25"/> </vehicle>
    <vehicle id="W_N_152" type="standard_car" route="W_N" depart="2486.0" departLane="random" departSpeed="10" arrivalLane="1"> <stop lane="TL2N_1" endPos="750" duration="-25"/> </vehicle>
    <vehicle id="S_N_153" type="standard_car" route="S_N" depart="2488.0" departLane="random" departSpeed="10" arrivalLane="3"> <stop lane="TL2N_3" endPos="750" duration="-25"/> </vehicle>
    <vehicle id="W_E_154" type="standard_car" route="W_E" depart="2503.0" departLane="random" departSpeed="10" arrivalLane="1"> <stop lane="TL2E_1" endPos="750" duration="-25"/> </vehicle>