<routes>
            <vType accel="1.0" decel="4.5" id="standard_car" length="5.0" minGap="2.5" maxSpeed="25" sigma="0.5" />

            <route id="W_N" edges="W2TL TL2N"/>
            <route id="W_E" edges="W2TL TL2E"/>
            <route id="W_S" edges="W2TL TL2S"/>
            <route id="N_W" edges="N2TL TL2W"/>
            <route id="N_E" edges="N2TL TL2E"/>
            <route id="N_S" edges="N2TL TL2S"/>
            <route id="E_W" edges="E2TL TL2W"/>
            <route id="E_N" edges="E2TL TL2N"/>
            <route id="E_S" edges="E2TL TL2S"/>
            <route id="S_W" edges="S2TL TL2W"/>
            <route id="S_N" edges="S2TL TL2N"/>
            <route id="S_E" edges="S2TL TL2E"/>
    <vehicle id="E_W_0" type="standard_car" route="E_W" depart="555.0" departLane="random" departSpeed="10" arrivalLane="2"> <stop lane="TL2W_2" endPos="750" duration="-16"/> </vehicle>
    <vehicle id="E_W_1" type="standard_car" route="E_W" depart="631.0" departLane="random" departSpeed="10" arrivalLane="0"> <stop lane="TL2W_0" endPos="750" duration="-17"/> </vehicle>
    <vehicle id="S_N_2" type="standard_car" route="S_N" depart="892.0" departLane="random" departSpeed="10" arrivalLane="3"> <stop lane="TL2N_3" endPos="750" duration="-20"/> </vehicle>
    <vehicle id="S_N_3" type="standard_car" route="S_N" depart="917.0" departLane="random" departSpeed="10" arrivalLane="3"> <stop lane="TL2N_3" endPos="750" duration="-20"/> </vehicle>
    <vehicle id="N_S_4" type="standard_car" route="N_S" depart="1033.0" departLane="random" departSpeed="10" arrivalLane="0"> <stop lane="TL2S_0" endPos="750" duration="-21"/> </vehicle>
    <vehicle id="W_S_5" type="standard_car" route="W_S" depart="1073.0" departLane="random" departSpeed="10" arrivalLane="0"> <stop lane="TL2S_0" endPos="750" duration="-21"/> </vehicle>
    <vehicle id="W_E_6" type="standard_car" route="W_E" depart="1229.0" departLane="random" departSpeed="10" arrivalLane="3"> <stop lane="TL2E_3" endPos="750" duration="-23"/> </vehicle>
    <vehicle id="E_W_7" type="standard_car" route="E_W" depart="1260.0" departLane="random" departSpeed="10" arrivalLane="0"> <stop lane="TL2W_0" endPos="750" duration="-23"/> </vehicle>
    <vehicle id="S_N_8" type="standard_car" route="S_N" depart="1339.0" departLane="random" departSpeed="10" arrivalLane="3"> <stop lane="TL2N_3" endPos="750" duration="-24"/> </vehicle>
    <vehicle id="E_W_9" type="standard_car" route="E_W" depart="1404.0" departLane="random" departSpeed="10" arrivalLane="3"> <stop lane="TL2W_3" endPos="750" duration="-24"/> </vehicle>
    <vehicle id="N_S_10" type="standard_car" route="N_S" depart="1533.0" departLane="random" departSpeed="10" arrivalLane="2"> <stop lane="TL2S_2" endPos="750" duration="-25"/> </vehicle>
    <vehicle id="E_W_11" type="standard_car" route="E_W" depart="1536.0" departLane="random" departSpeed="10" arrivalLane="2"> <stop lane="TL2W_2" endPos="750" duration="-25"/> </vehicle>
    <vehicle id="N_S_12" type="standard_car" route="N_S" depart="1564.0" departLane="random" departSpeed="10" arrivalLane="2"> <stop lane="TL2S_2" endPos="750" duration="-25"/> </vehicle>
    <vehicle id="E_N_13" type="standard_car" route="E_N" depart="1603.0" departLane="random" departSpeed="10" arrivalLane="2"> <stop lane="TL2N_2" endPos="750" duration="-25"/> </vehicle>
    <vehicle id="N_W_14" type="standard_car" route="N_W" depart="1604.0" departLane="random" departSpeed="10" arrivalLane="2"> <stop lane="TL2W_2" endPos="750" duration="-25"/> </vehicle>
    <vehicle id="W_E_15" type="standard_car" route="W_E" depart="1614.0" departLane="random" departSpeed="10" arrivalLane="0"> <stop lane="TL2E_0" endPos="750" duration="-25"/> </vehicle>
    <vehicle id="S_E_16" type="standard_car" route="S_E" depart="1645.0" departLane="random" departSpeed="10" arrivalLane="1"> <stop lane="TL2E_1" endPos="750" duration="-25"/> </vehicle>
    <vehicle id="N_S_17" type="standard_car" route="N_S" depart="1646.0" departLane="random" departSpeed="10" arrivalLane="0"> <stop lane="TL2S_0" endPos="750" duration="-25"/> </vehicle>
    <vehicle id="S_N_18" type="standard_car" route="S_N" depart="1877.0" departLane="random" departSpeed="10" arrivalLane="0"> <stop lane="TL2N_0" endPos="750" duration="-26"/> </vehicle>
    <vehicle id="E_N_19" type="standard_car" route="E_N" depart="1881.0" departLane="random" departSpeed="10" arrivalLane="0"> <stop lane="TL2N_0" endPos="750" duration="-26"/> </vehicle>
    <vehicle id="E_W_20" type="standard_car" route="E_W" depart="1889.0" departLane="random" departSpeed="10" arrivalLane="2"> <stop lane="TL2W_2" endPos="750" duration="-26"/> </vehicle>
    <vehicle id="S_W_21" type="standard_car" route="S_W" depart="1910.0" departLane="random" departSpeed="10" arrivalLane="0"> <stop lane="TL2W_0" endPos="750" duration="-26"/> </vehicle>
    <vehicle id="W_E_22" type="standard_car" route="W_E" depart="1935.0" departLane="random" departSpeed="10" arrivalLane="1"> <stop lane="TL2E_1" endPos="750" duration="-26"/> </vehicle>
    <vehicle id="S_N_23" type="standard_car" route="S_N" depart="1955.0" departLane="random" departSpeed="10" arrivalLane="3"> <stop lane="TL2N_3" endPos="750" duration="-26"/> </vehicle>
    <vehicle id="N_S_24" type="standard_car" route="N_S" depart="1988.0" departLane="random" departSpeed="10" arrivalLane="2"> <stop lane="TL2S_2" endPos="750" duration="-26"/> </vehicle>
    <vehicle id="E_S_25" type="standard_car" route="E_S" depart="2014.0" departLane="random" departSpeed="10" arrivalLane="0"> <stop lane="TL2S_0" endPos="750" duration="-26"/> </vehicle>
    <vehicle id="W_E_26" type="standard_car" route="W_E" depart="2073.0" departLane="random" departSpeed="10" arrivalLane="1"> <stop lane="TL2E_1" endPos="750" duration="-26"/> </vehicle>
    <vehicle id="N_S_27" type="standard_car" route="N_S" depart="2100.0" departLane="random" departSpeed="10" arrivalLane="0"> <stop lane="TL2S_0" endPos="750" duration="-26"/> </vehicle>
    <vehicle id="W_E_28" type="standard_car" route="W_E" depart="2166.0" departLane="random" departSpeed="10" arrivalLane="3"> <stop lane="TL2E_3" endPos="750" duration="-26"/> </vehicle>
    <vehicle id="S_E_29" type="standard_car" route="S_E" depart="2221.0" departLane="random" departSpeed="10" arrivalLane="3"> <stop lane="TL2E_3" endPos="750" duration="-26"/> </vehicle>
    <vehicle id="E_W_30" type="standard_car" route="E_W" depart="2241.0" departLane="random" departSpeed="10" arrivalLane="2"> <stop lane="TL2W_2" endPos="750" duration="-26"/> </vehicle>
    <vehicle id="W_N_31" type="standard_car" route="W_N" depart="2280.0" departLane="random" departSpeed="10" arrivalLane="3"> <stop lane="TL2N_3" endPos="750" duration="-26"/> </vehicle>
    <vehicle id="N_S_32" type="standard_car" route="N_S" depart="2309.0" departLane="random" departSpeed="10" arrivalLane="1"> <stop lane="TL2S_1" endPos="750" duration="-26"/> </vehicle>
    <vehicle id="N_S_33" type="standard_car" route="N_S" depart="2315.0" departLane="random" departSpeed="10" arrivalLane="2"> <stop lane="TL2S_2" endPos="750" duration="-26"/> </vehicle>
    <vehicle id="W_E_34" type="standard_car" route="W_E" depart="2362.0" departLane="random" departSpeed="10" arrivalLane="3"> <stop lane="TL2E_3" endPos="750" duration="-25"/> </vehicle>
    <vehicle id="E_W_35" type="standard_car" route="E_W" depart="2390.0" departLane="random" departSpeed="10" arrivalLane="3"> <stop lane="TL2W_3" endPos="750" duration="-25"/> </vehicle>
    <vehicle id="S_N_36" type="standard_car" route="S_N" depart="2391.0" departLane="random" departSpeed="10" arrivalLane="0"> <stop lane="TL2N_0" endPos="750" duration="-25"/> </vehicle>
    <vehicle id="N_E_37" type="standard_car" route="N_E" depart="2409.0" departLane="random" departSpeed="10" arrivalLane="3"> <stop lane="TL2E_3" endPos="750" duration="-25"/> </vehicle>
    <vehicle id="S_N_38" type="standard_car" route="S_N" depart="2588.0" departLane="random" departSpeed="10" arrivalLane="1"> <stop lane="TL2N_1" endPos="750" duration="-24"/> </vehicle>
    <vehicle id="S_E_39" type="standard_car" route="S_E" depart="2690.0" departLane="random" departSpeed="10" arrivalLane="3"> <stop lane="TL2E_3" endPos="750" duration="-23"/> </vehicle>
    <vehicle id="N_S_40" type="standard_car" route="N_S" depart="2710.0" departLane="random" departSpeed="10" arrivalLane="1"> <stop lane="TL2S_1" endPos="750" duration="-23"/> </vehicle>
    <vehicle id="W_E_41" type="standard_car" route="W_E" depart="2718.0" departLane="random" departSpeed="10" arrivalLane="1"> <stop lane="TL2E_1" endPos="750" duration="-23"/> </vehicle>
    <vehicle id="N_S_42" type="standard_car" route="N_S" depart="2743.0" departLane="random" departSpeed="10" arrivalLane="3"> <stop lane="TL2S_3" endPos="750" duration="-23"/> </vehicle>
    <vehicle id="E_W_43" type="standard_car" route="E_W" depart="2779.0" departLane="random" departSpeed="10" arrivalLane="2"> <stop lane="TL2W_2" endPos="750" duration="-23"/> </vehicle>
    <vehicle id="N_S_44" type="standard_car" route="N_S" depart="2783.0" departLane="random" departSpeed="10" arrivalLane="2"> <stop lane="TL2S_2" endPos="750" duration="-23"/> </vehicle>
    <vehicle id="S_N_45" type="standard_car" route="S_N" depart="2790.0" departLane="random" departSpeed="10" arrivalLane="0"> <stop lane="TL2N_0" endPos="750" duration="-23"/> </vehicle>
    <vehicle id="N_W_46" type="standard_car" route="N_W" depart="2793.0" departLane="random" departSpeed="10" arrivalLane="3"> <stop lane="TL2W_3" endPos="750" duration="-23"/> </vehicle>
    <vehicle id="E_N_47" type="standard_car" route="E_N" depart="2796.0" departLane="random" departSpeed="10" arrivalLane="0"> <stop lane="TL2N_0" endPos="750" duration="-23"/> </vehicle>
    <vehicle id="S_N_48" type="standard_car" route="S_N" depart="2818.0" departLane="random" departSpeed="10" arrivalLane="1"> <stop lane="TL2N_1" endPos="750" duration="-22"/> </vehicle>
    <vehicle id="N_S_49" type="standard_car" route="N_S" depart="2881.0" departLane="random" departSpeed="10" arrivalLane="3"> <stop lane="TL2S_3" endPos="750" duration="-22"/> </vehicle>
    <vehicle id="S_E_50" type="standard_car" route="S_E" depart="2922.0" departLane="random" departSpeed="10" arrivalLane="0"> <stop lane="TL2E_0" endPos="750" duration="-22"/> </vehicle>
    <vehicle id="W_E_51" type="standard_car" route="W_E" depart="2969.0" departLane="random" departSpeed="10" arrivalLane="0"> <stop lane="TL2E_0" endPos="750" duration="-21"/> </vehicle>
    <vehicle id="W_N_52" type="standard_car" route="W_N" depart="3030.0" departLane="random" departSpeed="10" arrivalLane="3"> <stop lane="TL2N_3" endPos="750" duration="-21"/> </vehicle>
    <vehicle id="N_S_53" type="standard_car" route="N_S" depart="3033.0" departLane="random" departSpeed="10" arrivalLane="3"> <stop lane="TL2S_3" endPos="750" duration="-20"/> </vehicle>
    <vehicle id="E_W_54" type="standard_car" route="E_W" depart="3106.0" departLane="random" departSpeed="10" arrivalLane="1"> <stop lane="TL2W_1" endPos="750" duration="-20"/> </vehicle>
    <vehicle id="S_N_55" type="standard_car" route="S_N" depart="3123.0" departLane="random" departSpeed="10" arrivalLane="3"> <stop lane="TL2N_3" endPos="750" duration="-20"/> </vehicle>
    <vehicle id="W_E_56" type="standard_car" route="W_E" depart="3145.0" departLane="random" departSpeed="10" arrivalLane="3"> <stop lane="TL2E_3" endPos="750" duration="-19"/> </vehicle>
    <vehicle id="N_S_57" type="standard_car" route="N_S" depart="3159.0" departLane="random" departSpeed="10" arrivalLane="2"> <stop lane="TL2S_2" endPos="750" duration="-19"/> </vehicle>
    <vehicle id="S_E_58" type="standard_car" route="S_E" depart="3205.0" departLane="random" departSpeed="10" arrivalLane="0"> <stop lane="TL2E_0" endPos="750" duration="-19"/> </vehicle>
    <vehicle id="N_S_59" type="standard_car" route="N_S" depart="3267.0" departLane="random" departSpeed="10" arrivalLane="2"> <stop lane="TL2S_2" endPos="750" duration="-18"/> </vehicle>
    <vehicle id="S_N_60" type="standard_car" route="S_N" depart="3283.0" departLane="random" departSpeed="10" arrivalLane="2"> <stop lane="TL2N_2" endPos="750" duration="-18"/> </vehicle>
    <vehicle id="W_S_61" type="standard_car" route="W_S" depart="3305.0" departLane="random" departSpeed="10" arrivalLane="1"> <stop lane="TL2S_1" endPos="750" duration="-18"/> </vehicle>
    <vehicle id="N_W_62" type="standard_car" route="N_W" depart="3345.0" departLane="random" departSpeed="10" arrivalLane="1"> <stop lane="TL2W_1" endPos="750" duration="-17"/> </vehicle>
    <vehicle id="N_S_63" type="standard_car" route="N_S" depart="3348.0" departLane="random" departSpeed="10" arrivalLane="3"> <stop lane="TL2S_3" endPos="750" duration="-17"/> </vehicle>
    <vehicle id="S_N_64" type="standard_car" route="S_N" depart="3348.0" departLane="random" departSpeed="10" arrivalLane="0"> <stop lane="TL2N_0" endPos="750" duration="-17"/> </vehicle>
    <vehicle id="N_S_65" type="standard_car" route="N_S" depart="3356.0" departLane="random" departSpeed="10" arrivalLane="3"> <stop lane="TL2S_3" endPos="750" duration="-17"/> </vehicle>
    <vehicle id="S_N_66" type="standard_car" route="S_N" depart="3379.0" departLane="random" departSpeed="10" arrivalLane="0"> <stop lane="TL2N_0" endPos="750" duration="-17"/> </vehicle>
    <vehicle id="N_S_67" type="standard_car" route="N_S" depart="3382.0" departLane="random" departSpeed="10" arrivalLane="2"> <stop lane="TL2S_2" endPos="750" duration="-17"/> </vehicle>
    <vehicle id="E_W_68" type="standard_car" route="E_W" depart="3406.0" departLane="random" departSpeed="10" arrivalLane="2"> <stop lane="TL2W_2" endPos="750" duration="-17"/> </vehicle>
    <vehicle id="W_E_69" type="standard_car" route="W_E" depart="3424.0" departLane="random" departSpeed="10" arrivalLane="3"> <stop lane="TL2E_3" endPos="750" duration="-16"/> </vehicle>
    <vehicle id="W_S_70" type="standard_car" route="W_S" depart="3471.0" departLane="random" departSpeed="10" arrivalLane="1"> <stop lane="TL2S_1" endPos="750" duration="-16"/> </vehicle>
    <vehicle id="S_N_71" type="standard_car" route="S_N" depart="3485.0" departLane="random" departSpeed="10" arrivalLane="1"> <stop lane="TL2N_1" endPos="750" duration="-16"/> </vehicle>
    <vehicle id="S_N_72" type="standard_car" route="S_N" depart="3501.0" departLane="random" departSpeed="10" arrivalLane="1"> <stop lane="TL2N_1" endPos="750" duration="-16"/> </vehicle>
    <vehicle id="N_S_73" type="standard_car" route="N_S" depart="3506.0" departLane="random" departSpeed="10" arrivalLane="0"> <stop lane="TL2S_0" endPos="750" duration="-16"/> </vehicle>
    <vehicle id="S_N_74" type="standard_car" route="S_N" depart="3578.0" departLane="random" departSpeed="10" arrivalLane="3"> <stop lane="TL2N_3" endPos="750" duration="-15"/> </vehicle>
    <vehicle id="S_N_75" type="standard_car" route="S_N" depart="3615.0" departLane="random" departSpeed="10" arrivalLane="0"> <stop lane="TL2N_0" endPos="750" duration="-14"/> </vehicle>
    <vehicle id="W_E_76" type="standard_car" route="W_E" depart="3623.0" departLane="random" departSpeed="10" arrivalLane="0"> <stop lane="TL2E_0" endPos="750" duration="-14"/> </vehicle>
    <vehicle id="N_S_77" type="standard_car" route="N_S" depart="3662.0" departLane="random" departSpeed="10" arrivalLane="0"> <stop lane="TL2S_0" endPos="750" duration="-14"/> </vehicle>
    <vehicle id="N_S_78" type="standard_car" route="N_S" depart="3673.0" departLane="random" departSpeed="10" arrivalLane="2"> <stop lane="TL2S_2" endPos="750" duration="-14"/> </vehicle>
    <vehicle id="W_N_79" type="standard_car" route="W_N" depart="3678.0" departLane="random" departSpeed="10" arrivalLane="0"> <stop lane="TL2N_0" endPos="750" duration="-14"/> </vehicle>
    <vehicle id="S_E_80" type="standard_car" route="S_E" depart="3681.0" departLane="random" departSpeed="10" arrivalLane="3"> <stop lane="TL2E_3" endPos="750" duration="-14"/> </vehicle>
    <vehicle id="S_N_81" type="standard_car" route="S_N" depart="3684.0" departLane="random" departSpeed="10" arrivalLane="0"> <stop lane="TL2N_0" endPos="750" duration="-14"/> </vehicle>
    <vehicle id="S_E_82" type="standard_car" route="S_E" depart="3702.0" departLane="random" departSpeed="10" arrivalLane="1"> <stop lane="TL2E_1" endPos="750" duration="-13"/> </vehicle>
    <vehicle id="E_W_83" type="standard_car" route="E_W" depart="3703.0" departLane="random" departSpeed="10" arrivalLane="0"> <stop lane="TL2W_0" endPos="750" duration="-13"/> </vehicle>
    <vehicle id="E_N_84" type="standard_car" route="E_N" depart="3779.0" departLane="random" departSpeed="10" arrivalLane="2"> <stop lane="TL2N_2" endPos="750" duration="-13"/> </vehicle>
    <vehicle id="E_W_85" type="standard_car" route="E_W" depart="3790.0" departLane="random" departSpeed="10" arrivalLane="0"> <stop lane="TL2W_0" endPos="750" duration="-13"/> </vehicle>
    <vehicle id="W_E_86" type="standard_car" route="W_E" depart="3832.0" departLane="random" departSpeed="10" arrivalLane="2"> <stop lane="TL2E_2" endPos="750" duration="-12"/> </vehicle>
    <vehicle id="S_N_87" type="standard_car" route="S_N" depart="3834.0" departLane="random" departSpeed="10" arrivalLane="2"> <stop lane="TL2N_2" endPos="750" duration="-12"/> </vehicle>
    <vehicle id="S_N_88" type="standard_car" route="S_N" depart="3896.0" departLane="random" departSpeed="10" arrivalLane="0"> <stop lane="TL2N_0" endPos="750" duration="-11"/> </vehicle>
    <vehicle id="E_N_89" type="standard_car" route="E_N" depart="3912.0" departLane="random" departSpeed="10" arrivalLane="1"> <stop lane="TL2N_1" endPos="750" duration="-11"/> </vehicle>
    <vehicle id="S_N_90" type="standard_car" route="S_N" depart="3937.0" departLane="random" departSpeed="10" arrivalLane="0"> <stop lane="TL2N_0" endPos="750" duration="-11"/> </vehicle>
    <vehicle id="W_E_91" type="standard_car" route="W_E" depart="3960.0" departLane="random" departSpeed="10" arrivalLane="1"> <stop lane="TL2E_1" endPos="750" duration="-11"/> </vehicle>
    <vehicle id="E_W_92" type="standard_car" route="E_W" depart="3967.0" departLane="random" departSpeed="10" arrivalLane="3"> <stop lane="TL2W_3" endPos="750" duration="-11"/> </vehicle>
    <vehicle id="W_N_93" type="standard_car" route="W_N" depart="3989.0" departLane="random" departSpeed="10" arrivalLane="1"> <stop lane="TL2N_1" endPos="750" duration="-11"/> </vehicle>
    <vehicle id="E_W_94" type="standard_car" route="E_W" depart="4005.0" departLane="random" departSpeed="10" arrivalLane="0"> <stop lane="TL2W_0" endPos="750" duration="-10"/> </vehicle>
    <vehicle id="N_S_95" type="standard_car" route="N_S" depart="4032.0" departLane="random" departSpeed="10" arrivalLane="1"> <stop lane="TL2S_1" endPos="750" duration="-10"/> </vehicle>
    <vehicle id="S_N_96" type="standard_car" route="S_N" depart="4039.0" departLane="random" departSpeed="10" arrivalLane="0"> <stop lane="TL2N_0" endPos="750" duration="-10"/> </vehicle>
    <vehicle id="N_S_97" type="standard_car" route="N_S" depart="4071.0" departLane="random" departSpeed="10" arrivalLane="3"> <stop lane="TL2S_3" endPos="750" duration="-10"/> </vehicle>
    <vehicle id="W_E_98" type="standard_car" route="W_E" depart="4078.0" departLane="random" departSpeed="10" arrivalLane="0"> <stop lane="TL2E_0" endPos="750" duration="-10"/> </vehicle>
    <vehicle id="E_W_99" type="standard_car" route="E_W" depart="4090.0" departLane="random" departSpeed="10" arrivalLane="0"> <stop lane="TL2W_0" endPos="750" duration="-10"/> </vehicle>
    <vehicle id="S_N_100" type="standard_car" route="S_N" depart="4097.0" departLane="random" departSpeed="10" arrivalLane="2"> <stop lane="TL2N_2" endPos="750" duration="-10"/> </vehicle>
    <vehicle id="E_W_101" type="standard_car" route="E_W" depart="4146.0" departLane="random" departSpeed="10" arrivalLane="0"> <stop lane="TL2W_0" endPos="750" duration="-9"/> </vehicle>
    <vehicle id="E_W_102" type="standard_car" route="E_W" depart="4160.0" departLane="random" departSpeed="10" arrivalLane="2"> <stop lane="TL2W_2" endPos="750" duration="-9"/> </vehicle>
    <vehicle id="N_E_103" type="standard_car" route="N_E" depart="4166.0" departLane="random" departSpeed="10" arrivalLane="2"> <stop lane="TL2E_2" endPos="750" duration="-9"/> </vehicle>
    <vehicle id="S_E_104" type="standard_car" route="S_E" depart="4170.0" departLane="random" departSpeed="10" arrivalLane="0"> <stop lane="TL2E_0" endPos="750" duration="-9"/> </vehicle>
    <vehicle id="N_S_105" type="standard_car" route="N_S" depart="4171.0" departLane="random" departSpeed="10" arrivalLane="1"> <stop lane="TL2S_1" endPos="750" duration="-9"/> </vehicle>
    <vehicle id="N_S_106" type="standard_car" route="N_S" depart="4189.0" departLane="random" departSpeed="10" arrivalLane="0"> <stop lane="TL2S_0" endPos="750" duration="-9"/> </vehicle>
    <vehicle id="E_W_107" type="standard_car" route="E_W" depart="4216.0" departLane="random" departSpeed="10" arrivalLane="1"> <stop lane="TL2W_1" endPos="750" duration="-8"/> </vehicle>
    <vehicle id="W_S_108" type="standard_car" route="W_S" depart="4216.0" departLane="random" departSpeed="10" arrivalLane="2"> <stop lane="TL2S_2" endPos="750" duration="-8"/> </vehicle>
    <vehicle id="W_S_109" type="standard_car" route="W_S" depart="4234.0" departLane="random" departSpeed="10" arrivalLane="2"> <stop lane="TL2S_2" endPos="750" duration="-8"/> </vehicle>
    <vehicle id="S_N_110" type="standard_car" route="S_N" depart="4237.0" departLane="random" departSpeed="10" arrivalLane="2"> <stop lane="TL2N_2" endPos="750" duration="-8"/> </vehicle>
    <vehicle id="N_S_111" type="standard_car" route="N_S" depart="4269.0" departLane="random" departSpeed="10" arrivalLane="2"> <stop lane="TL2S_2" endPos="750" duration="-8"/> </vehicle>
    <vehicle id="S_N_112" type="standard_car" route="S_N" depart="4278.0" departLane="random" departSpeed="10" arrivalLane="1"> <stop lane="TL2N_1" endPos="750" duration="-8"/> </vehicle>
    <vehicle id="N_S_113" type="standard_car" route="N_S" depart="4304.0" departLane="random" departSpeed="10" arrivalLane="2"> <stop lane="TL2S_2" endPos="750" duration="-8"/> </vehicle>
    <vehicle id="N_S_114" type="standard_car" route="N_S" depart="4306.0" departLane="random" departSpeed="10" arrivalLane="1"> <stop lane="TL2S_1" endPos="750" duration="-8"/> </vehicle>
    <vehicle id="E_S_115" type="standard_car" route="E_S" depart="4323.0" departLane="random" departSpeed="10" arrivalLane="0"> <stop lane="TL2S_0" endPos="750" duration="-8"/> </vehicle>
    <vehicle id="E_W_116" type="standard_car" route="E_W" depart="4352.0" departLane="random" departSpeed="10" arrivalLane="2"> <stop lane="TL2W_2" endPos="750" duration="-7"/> </vehicle>
    <vehicle id="E_W_117" type="standard_car" route="E_W" depart="4353.0" departLane="random" departSpeed="10" arrivalLane="3"> <stop lane="TL2W_3" endPos="750" duration="-7"/> </vehicle>
    <vehicle id="N_S_118" type="standard_car" route="N_S" depart="4363.0" departLane="random" departSpeed="10" arrivalLane="2"> <stop lane="TL2S_2" endPos="750" duration="-7"/> </vehicle>
    <vehicle id="E_W_119" type="standard_car" route="E_W" depart="4367.0" departLane="random" departSpeed="10" arrivalLane="2"> <stop lane="TL2W_2" endPos="750" duration="-7"/> </vehicle>
    <vehicle id="S_N_120" type="standard_car" route="S_N" depart="4425.0" departLane="random" departSpeed="10" arrivalLane="0"> <stop lane="TL2N_0" endPos="750" duration="-7"/> </vehicle>
    <vehicle id="E_W_121" type="standard_car" route="E_W" depart="4442.0" departLane="random" departSpeed="10" arrivalLane="3"> <stop lane="TL2W_3" endPos="750" duration="-7"/> </vehicle>
    <vehicle id="N_S_122" type="standard_car" route="N_S" depart="4462.0" departLane="random" departSpeed="10" arrivalLane="3"> <stop lane="TL2S_3" endPos="750" duration="-6"/> </vehicle>
    <vehicle id="E_W_123" type="standard_car" route="E_W" depart="4476.0" departLane="random" departSpeed="10" arrivalLane="3"> <stop lane="TL2W_3" endPos="750" duration="-6"/> </vehicle>
    <vehicle id="N_S_124" type="standard_car" route="N_S" depart="4481.0" departLane="random" departSpeed="10" arrivalLane="2"> <stop lane="TL2S_2" endPos="750" duration="-6"/> </vehicle>
    <vehicle id="W_E_125" type="standard_car" route="W_E" depart="4486.0" departLane="random" departSpeed="10" arrivalLane="2"> <stop lane="TL2E_2" endPos="750" duration="-6"/> </vehicle>
    <vehicle id="W_E_126" type="standard_car" route="W_E" depart="4501.0" departLane="random" departSpeed="10" arrivalLane="1"> <stop lane="TL2E_1" endPos="750" duration="-6"/> </vehicle>
    <vehicle id="S_N_127" type="standard_car" route="S_N" depart="4503.0" departLane="random" departSpeed="10" arrivalLane="3"> <stop lane="TL2N_3" endPos="750" duration="-6"/> </vehicle>
    <vehicle id="W_E_128" type="standard_car" route="W_E" depart="4510.0" departLane="random" departSpeed="10" arrivalLane="1"> <stop lane="TL2E_1" endPos="750" duration="-6"/> </vehicle>
    <vehicle id="W_E_129" type="standard_car" route="W_E" depart="4542.0" departLane="random" departSpeed="10" arrivalLane="2"> <stop lane="TL2E_2" endPos="750" duration="-6"/> </vehicle>
    <vehicle id="S_N_130" type="standard_car" route="S_N" depart="4547.0" departLane="random" departSpeed="10" arrivalLane="3"> <stop lane="TL2N_3" endPos="750" duration="-6"/> </vehicle>
    <vehicle id="S_N_131" type="standard_car" route="S_N" depart="4596.0" departLane="random" departSpeed="10" arrivalLane="2"> <stop lane="TL2N_2" endPos="750" duration="-5"/> </vehicle>
    <vehicle id="S_N_132" type="standard_car" route="S_N" depart="4603.0" departLane="random" departSpeed="10" arrivalLane="0"> <stop lane="TL2N_0" endPos="750" duration="-5"/> </vehicle>
    <vehicle id="W_N_133" type="standard_car" route="W_N" depart="4621.0" departLane="random" departSpeed="10" arrivalLane="0"> <stop lane="TL2N_0" endPos="750" duration="-5"/> </vehicle>
    <vehicle id="S_N_134" type="standard_car" route="S_N" depart="4629.0" departLane="random" departSpeed="10" arrivalLane="3"> <stop lane="TL2N_3" endPos="750" duration="-5"/> </vehicle>
    <vehicle id="S_N_135" type="standard_car" route="S_N" depart="4654.0" departLane="random" departSpeed="10" arrivalLane="3"> <stop lane="TL2N_3" endPos="750" duration="-5"/> </vehicle>
    <vehicle id="S_N_136" type="standard_car" route="S_N" depart="4689.0" departLane="random" departSpeed="10" arrivalLane="0"> <stop lane="TL2N_0" endPos="750" duration="-5"/> </vehicle>
    <vehicle id="S_N_137" type="standard_car" route="S_N" depart="4725.0" departLane="random" departSpeed="10" arrivalLane="1"> <stop lane="TL2N_1" endPos="750" duration="-5"/> </vehicle>
    <vehicle id="N_S_138" type="standard_car" route="N_S" depart="4742.0" departLane="random" departSpeed="10" arrivalLane="1"> <stop lane="TL2S_1" endPos="750" duration="-5"/> </vehicle>
    <vehicle id="E_W_139" type="standard_car" route="E_W" depart="4758.0" departLane="random" departSpeed="10" arrivalLane="0"> <stop lane="TL2W_0" endPos="750" duration="-4"/> </vehicle>
    <vehicle id="W_E_140" type="standard_car" route="W_E" depart="4776.0" departLane="random" departSpeed="10" arrivalLane="2"> <stop lane="TL2E_2" endPos="750" duration="-4"/> </vehicle>
    <vehicle id="S_N_141" type="standard_car" route="S_N" depart="4784.0" departLane="random" departSpeed="10" arrivalLane="1"> <stop lane="TL2N_1" endPos="750" duration="-4"/> </vehicle>
    <vehicle id="E_S_142" type="standard_car" route="E_S" depart="4847.0" departLane="random" departSpeed="10" arrivalLane="0"> <stop lane="TL2S_0" endPos="750" duration="-4"/> </vehicle>
    <vehicle id="N_E_143" type="standard_car" route="N_E" depart="4870.0" departLane="random" departSpeed="10" arrivalLane="1"> <stop lane="TL2E_1" endPos="750" duration="-4"/> </vehicle>
    <vehicle id="S_N_144" type="standard_car" route="S_N" depart="4907.0" departLane="random" departSpeed="10" arrivalLane="2"> <stop lane="TL2N_2" endPos="750" duration="-4"/> </vehicle>
    <vehicle id="N_S_145" type="standard_car" route="N_S" depart="4911.0" departLane="random" departSpeed="10" arrivalLane="1"> <stop lane="TL2S_1" endPos="750" duration="-4"/> </vehicle>
    <vehicle id="S_N_146" type="standard_car" route="S_N" depart="4922.0" departLane="random" departSpeed="10" arrivalLane="2"> <stop lane="TL2N_2" endPos="750" duration="-3"/> </vehicle>
    <vehicle id="N_S_147" type="standard_car" route="N_S" depart="4983.0" departLane="random" departSpeed="10" arrivalLane="2"> <stop lane="TL2S_2" endPos="750" duration="-3"/> </vehicle>
    <vehicle id="S_N_148" type="standard_car" route="S_N" depart="4991.0" departLane="random" departSpeed="10" arrivalLane="1"> <stop lane="TL2N_1" endPos="750" duration="-3"/> </vehicle>
    <vehicle id="N_S_149" type="standard_car" route="N_S" depart="4996.0" departLane="random" departSpeed="10" arrivalLane="1"> <stop lane="TL2S_1" endPos="750" duration="-3"/> </vehicle>
    <vehicle id="E_W_150" type="standard_car" route="E_W" depart="5049.0" departLane="random" departSpeed="10" arrivalLane="2"> <stop lane="TL2W_2" endPos="750" duration="-3"/> </vehicle>
    <vehicle id="E_S_151" type="standard_car" route="E_S" depart="5054.0" departLane="random" departSpeed="10" arrivalLane="2"> <stop lane="TL2S_2" endPos="750" duration="-3"/> </vehicle>
    <vehicle id="W_S_152" type="standard_car" route="W_S" depart="5101.0" departLane="random" departSpeed="10" arrivalLane="1"> <stop lane="TL2S_1" endPos="750" duration="-3"/> </vehicle>
    <vehicle id="W_E_153" type="standard_car" route="W_E" depart="5115.0" departLane="random" departSpeed="10" arrivalLane="2"> <stop lane="TL2E_2" endPos="750" duration="-3"/> </vehicle>
    <vehicle id="E_W_154" type="standard_car" route="E_W" depart="5124.0" departLane="random" departSpeed="10" arrivalLane="3"> <stop lane="TL2W_3" endPos="750" duration="-3"/> </vehicle>