<routes>
    <vType accel="1.0" decel="4.5" id="standard_car" length="5.0" minGap="2.5" maxSpeed="25" sigma="0.5" />

    <route id="W_N" edges="W2TL TL2N"/>
    <route id="W_E" edges="W2TL TL2E"/>
    <route id="W_S" edges="W2TL TL2S"/>
    <route id="N_W" edges="N2TL TL2W"/>
    <route id="N_E" edges="N2TL TL2E"/>
    <route id="N_S" edges="N2TL TL2S"/>
    <route id="E_W" edges="E2TL TL2W"/>
    <route id="E_N" edges="E2TL TL2N"/>
    <route id="E_S" edges="E2TL TL2S"/>
    <route id="S_W" edges="S2TL TL2W"/>
    <route id="S_N" edges="S2TL TL2N"/>
    <route id="S_E" edges="S2TL TL2E"/>
    <vehicle id="W_E_0" type="standard_car" route="W_E" depart="7618.0" departLane="random" departSpeed="10" arrivalLane="2" > </vehicle>
    <vehicle id="E_W_1" type="standard_car" route="E_W" depart="7726.0" departLane="random" departSpeed="10" arrivalLane="3" > </vehicle>
    <vehicle id="N_S_2" type="standard_car" route="N_S" depart="7746.0" departLane="random" departSpeed="10" arrivalLane="0" > </vehicle>
    <vehicle id="N_W_3" type="standard_car" route="N_W" depart="7774.0" departLane="random" departSpeed="10" arrivalLane="2"> </vehicle>
    <vehicle id="S_W_4" type="standard_car" route="S_W" depart="7791.0" departLane="random" departSpeed="10" arrivalLane="2" > </vehicle>
    <vehicle id="W_E_5" type="standard_car" route="W_E" depart="7808.0" departLane="random" departSpeed="10" arrivalLane="0" > </vehicle>
    <vehicle id="E_N_6" type="standard_car" route="E_N" depart="7816.0" departLane="random" departSpeed="10" arrivalLane="3" > </vehicle>
    <vehicle id="E_W_7" type="standard_car" route="E_W" depart="7822.0" departLane="random" departSpeed="10" arrivalLane="0" > </vehicle>
    <vehicle id="W_S_8" type="standard_car" route="W_S" depart="7826.0" departLane="random" departSpeed="10" arrivalLane="3" > </vehicle>
    <vehicle id="E_W_9" type="standard_car" route="E_W" depart="7861.0" departLane="random" departSpeed="10" arrivalLane="3" > </vehicle>
    <vehicle id="S_N_10" type="standard_car" route="S_N" depart="7881.0" departLane="random" departSpeed="10" arrivalLane="1"> </vehicle>
    <vehicle id="E_W_11" type="standard_car" route="E_W" depart="7910.0" departLane="random" departSpeed="10" arrivalLane="2" > </vehicle>
    <vehicle id="E_N_12" type="standard_car" route="E_N" depart="7927.0" departLane="random" departSpeed="10" arrivalLane="3" > </vehicle>
    <vehicle id="W_E_13" type="standard_car" route="W_E" depart="7976.0" departLane="random" departSpeed="10" arrivalLane="0" > </vehicle>
    <vehicle id="E_W_14" type="standard_car" route="E_W" depart="8031.0" departLane="random" departSpeed="10" arrivalLane="3" > </vehicle>
    <vehicle id="W_S_15" type="standard_car" route="W_S" depart="8036.0" departLane="random" departSpeed="10" arrivalLane="3" > </vehicle>
    <vehicle id="W_E_16" type="standard_car" route="W_E" depart="8039.0" departLane="random" departSpeed="10" arrivalLane="2" > </vehicle>
    <vehicle id="S_N_17" type="standard_car" route="S_N" depart="8049.0" departLane="random" departSpeed="10" arrivalLane="1"> </vehicle>
    <vehicle id="N_S_18" type="standard_car" route="N_S" depart="8053.0" departLane="random" departSpeed="10" arrivalLane="3" > </vehicle>
    <vehicle id="S_N_19" type="standard_car" route="S_N" depart="8067.0" departLane="random" departSpeed="10" arrivalLane="2"> </vehicle>
    <vehicle id="W_E_20" type="standard_car" route="W_E" depart="8093.0" departLane="random" departSpeed="10" arrivalLane="3" > </vehicle>
    <vehicle id="E_W_21" type="standard_car" route="E_W" depart="8144.0" departLane="random" departSpeed="10" arrivalLane="2" > </vehicle>
    <vehicle id="E_W_22" type="standard_car" route="E_W" depart="8153.0" departLane="random" departSpeed="10" arrivalLane="2" > </vehicle>
    <vehicle id="W_E_23" type="standard_car" route="W_E" depart="8155.0" departLane="random" departSpeed="10" arrivalLane="1" > </vehicle>
    <vehicle id="E_W_24" type="standard_car" route="E_W" depart="8158.0" departLane="random" departSpeed="10" arrivalLane="1" > </vehicle>
    <vehicle id="W_E_25" type="standard_car" route="W_E" depart="8164.0" departLane="random" departSpeed="10" arrivalLane="2" > </vehicle>
    <vehicle id="S_W_26" type="standard_car" route="S_W" depart="8186.0" departLane="random" departSpeed="10" arrivalLane="2" > </vehicle>
    <vehicle id="E_S_27" type="standard_car" route="E_S" depart="8208.0" departLane="random" departSpeed="10" arrivalLane="0" > </vehicle>
    <vehicle id="W_E_28" type="standard_car" route="W_E" depart="8227.0" departLane="random" departSpeed="10" arrivalLane="3" > </vehicle>
    <vehicle id="N_E_29" type="standard_car" route="N_E" depart="8238.0" departLane="random" departSpeed="10" arrivalLane="2"> </vehicle>
    <vehicle id="W_E_30" type="standard_car" route="W_E" depart="8242.0" departLane="random" departSpeed="10" arrivalLane="0" > </vehicle>
    <vehicle id="W_N_31" type="standard_car" route="W_N" depart="8247.0" departLane="random" departSpeed="10" arrivalLane="2" > </vehicle>
    <vehicle id="N_S_32" type="standard_car" route="N_S" depart="8282.0" departLane="random" departSpeed="10" arrivalLane="0" > </vehicle>
    <vehicle id="E_W_33" type="standard_car" route="E_W" depart="8361.0" departLane="random" departSpeed="10" arrivalLane="3" > </vehicle>
    <vehicle id="W_E_34" type="standard_car" route="W_E" depart="8383.0" departLane="random" departSpeed="10" arrivalLane="1" > </vehicle>
    <vehicle id="S_E_35" type="standard_car" route="S_E" depart="8391.0" departLane="random" departSpeed="10" arrivalLane="1" > </vehicle>
    <vehicle id="E_N_36" type="standard_car" route="E_N" depart="8399.0" departLane="random" departSpeed="10" arrivalLane="0" > </vehicle>
    <vehicle id="E_W_37" type="standard_car" route="E_W" depart="8459.0" departLane="random" departSpeed="10" arrivalLane="0" > </vehicle>
    <vehicle id="W_E_38" type="standard_car" route="W_E" depart="8462.0" departLane="random" departSpeed="10" arrivalLane="2" > </vehicle>
    <vehicle id="E_W_39" type="standard_car" route="E_W" depart="8488.0" departLane="random" departSpeed="10" arrivalLane="3" > </vehicle>
    <vehicle id="W_S_40" type="standard_car" route="W_S" depart="8493.0" departLane="random" departSpeed="10" arrivalLane="1" > </vehicle>
    <vehicle id="W_S_41" type="standard_car" route="W_S" depart="8509.0" departLane="random" departSpeed="10" arrivalLane="1" > </vehicle>
    <vehicle id="E_N_42" type="standard_car" route="E_N" depart="8524.0" departLane="random" departSpeed="10" arrivalLane="2" > </vehicle>
    <vehicle id="W_E_43" type="standard_car" route="W_E" depart="8529.0" departLane="random" departSpeed="10" arrivalLane="2" > </vehicle>
    <vehicle id="W_E_44" type="standard_car" route="W_E" depart="8543.0" departLane="random" departSpeed="10" arrivalLane="0" > </vehicle>
    <vehicle id="E_N_45" type="standard_car" route="E_N" depart="8579.0" departLane="random" departSpeed="10" arrivalLane="1" > </vehicle>
    <vehicle id="W_E_46" type="standard_car" route="W_E" depart="8594.0" departLane="random" departSpeed="10" arrivalLane="3" > </vehicle>
    <vehicle id="W_E_47" type="standard_car" route="W_E" depart="8603.0" departLane="random" departSpeed="10" arrivalLane="0" > </vehicle>
    <vehicle id="E_N_48" type="standard_car" route="E_N" depart="8605.0" departLane="random" departSpeed="10" arrivalLane="3" > </vehicle>
    <vehicle id="E_W_49" type="standard_car" route="E_W" depart="8608.0" departLane="random" departSpeed="10" arrivalLane="0" > </vehicle>
    <vehicle id="W_E_50" type="standard_car" route="W_E" depart="8616.0" departLane="random" departSpeed="10" arrivalLane="2" > </vehicle>
    <vehicle id="E_N_51" type="standard_car" route="E_N" depart="8619.0" departLane="random" departSpeed="10" arrivalLane="0" > </vehicle>
    <vehicle id="W_N_52" type="standard_car" route="W_N" depart="8624.0" departLane="random" departSpeed="10" arrivalLane="0" > </vehicle>
    <vehicle id="W_S_53" type="standard_car" route="W_S" depart="8636.0" departLane="random" departSpeed="10" arrivalLane="2" > </vehicle>
    <vehicle id="E_W_54" type="standard_car" route="E_W" depart="8657.0" departLane="random" departSpeed="10" arrivalLane="2" > </vehicle>
    <vehicle id="E_W_55" type="standard_car" route="E_W" depart="8670.0" departLane="random" departSpeed="10" arrivalLane="3" > </vehicle>
    <vehicle id="W_E_56" type="standard_car" route="W_E" depart="8677.0" departLane="random" departSpeed="10" arrivalLane="3" > </vehicle>
    <vehicle id="W_E_57" type="standard_car" route="W_E" depart="8689.0" departLane="random" departSpeed="10" arrivalLane="1" > </vehicle>
    <vehicle id="E_W_58" type="standard_car" route="E_W" depart="8700.0" departLane="random" departSpeed="10" arrivalLane="1" > </vehicle>
    <vehicle id="S_N_59" type="standard_car" route="S_N" depart="8711.0" departLane="random" departSpeed="10" arrivalLane="2"> </vehicle>
    <vehicle id="E_W_60" type="standard_car" route="E_W" depart="8723.0" departLane="random" departSpeed="10" arrivalLane="0" > </vehicle>
    <vehicle id="W_N_61" type="standard_car" route="W_N" depart="8729.0" departLane="random" departSpeed="10" arrivalLane="2" > </vehicle>
    <vehicle id="W_S_62" type="standard_car" route="W_S" depart="8736.0" departLane="random" departSpeed="10" arrivalLane="0" > </vehicle>
    <vehicle id="W_E_63" type="standard_car" route="W_E" depart="8741.0" departLane="random" departSpeed="10" arrivalLane="0" > </vehicle>
    <vehicle id="E_W_64" type="standard_car" route="E_W" depart="8754.0" departLane="random" departSpeed="10" arrivalLane="1" > </vehicle>
    <vehicle id="E_N_65" type="standard_car" route="E_N" depart="8809.0" departLane="random" departSpeed="10" arrivalLane="0" > </vehicle>
    <vehicle id="W_E_66" type="standard_car" route="W_E" depart="8826.0" departLane="random" departSpeed="10" arrivalLane="0" > </vehicle>
    <vehicle id="W_E_67" type="standard_car" route="W_E" depart="8849.0" departLane="random" departSpeed="10" arrivalLane="2" > </vehicle>
    <vehicle id="E_W_68" type="standard_car" route="E_W" depart="8853.0" departLane="random" departSpeed="10" arrivalLane="1" > </vehicle>
    <vehicle id="S_E_69" type="standard_car" route="S_E" depart="8860.0" departLane="random" departSpeed="10" arrivalLane="0" > </vehicle>
    <vehicle id="E_W_70" type="standard_car" route="E_W" depart="8870.0" departLane="random" departSpeed="10" arrivalLane="1" > </vehicle>
    <vehicle id="W_N_71" type="standard_car" route="W_N" depart="8878.0" departLane="random" departSpeed="10" arrivalLane="0" > </vehicle>
    <vehicle id="W_E_72" type="standard_car" route="W_E" depart="8883.0" departLane="random" departSpeed="10" arrivalLane="2" > </vehicle>
    <vehicle id="E_W_73" type="standard_car" route="E_W" depart="8884.0" departLane="random" departSpeed="10" arrivalLane="1" > </vehicle>
    <vehicle id="S_N_74" type="standard_car" route="S_N" depart="8886.0" departLane="random" departSpeed="10" arrivalLane="3"> </vehicle>
    <vehicle id="N_S_75" type="standard_car" route="N_S" depart="8891.0" departLane="random" departSpeed="10" arrivalLane="1" > </vehicle>
    <vehicle id="W_N_76" type="standard_car" route="W_N" depart="8935.0" departLane="random" departSpeed="10" arrivalLane="2" > </vehicle>
    <vehicle id="W_N_77" type="standard_car" route="W_N" depart="8948.0" departLane="random" departSpeed="10" arrivalLane="0" > </vehicle>
    <vehicle id="E_W_78" type="standard_car" route="E_W" depart="8954.0" departLane="random" departSpeed="10" arrivalLane="0" > </vehicle>
    <vehicle id="W_E_79" type="standard_car" route="W_E" depart="8959.0" departLane="random" departSpeed="10" arrivalLane="1" > </vehicle>
    <vehicle id="S_N_80" type="standard_car" route="S_N" depart="8960.0" departLane="random" departSpeed="10" arrivalLane="0"> </vehicle>
    <vehicle id="N_S_81" type="standard_car" route="N_S" depart="8974.0" departLane="random" departSpeed="10" arrivalLane="3" > </vehicle>
    <vehicle id="E_W_82" type="standard_car" route="E_W" depart="8974.0" departLane="random" departSpeed="10" arrivalLane="3" > </vehicle>
    <vehicle id="E_W_83" type="standard_car" route="E_W" depart="9000.0" departLane="random" departSpeed="10" arrivalLane="1" > </vehicle>
    <vehicle id="E_W_84" type="standard_car" route="E_W" depart="9005.0" departLane="random" departSpeed="10" arrivalLane="1" > </vehicle>
    <vehicle id="W_N_85" type="standard_car" route="W_N" depart="9008.0" departLane="random" departSpeed="10" arrivalLane="3" > </vehicle>
    <vehicle id="E_S_86" type="standard_car" route="E_S" depart="9010.0" departLane="random" departSpeed="10" arrivalLane="2" > </vehicle>
    <vehicle id="S_W_87" type="standard_car" route="S_W" depart="9029.0" departLane="random" departSpeed="10" arrivalLane="2" > </vehicle>
    <vehicle id="S_E_88" type="standard_car" route="S_E" depart="9042.0" departLane="random" departSpeed="10" arrivalLane="2" > </vehicle>
    <vehicle id="E_W_89" type="standard_car" route="E_W" depart="9042.0" departLane="random" departSpeed="10" arrivalLane="3" > </vehicle>
    <vehicle id="E_W_90" type="standard_car" route="E_W" depart="9054.0" departLane="random" departSpeed="10" arrivalLane="2" > </vehicle>
    <vehicle id="E_W_91" type="standard_car" route="E_W" depart="9069.0" departLane="random" departSpeed="10" arrivalLane="2" > </vehicle>
    <vehicle id="N_S_92" type="standard_car" route="N_S" depart="9071.0" departLane="random" departSpeed="10" arrivalLane="1" > </vehicle>
    <vehicle id="N_S_93" type="standard_car" route="N_S" depart="9072.0" departLane="random" departSpeed="10" arrivalLane="2" > </vehicle>
    <vehicle id="S_W_94" type="standard_car" route="S_W" depart="9110.0" departLane="random" departSpeed="10" arrivalLane="0" > </vehicle>
    <vehicle id="E_N_95" type="standard_car" route="E_N" depart="9127.0" departLane="random" departSpeed="10" arrivalLane="0" > </vehicle>
    <vehicle id="N_S_96" type="standard_car" route="N_S" depart="9130.0" departLane="random" departSpeed="10" arrivalLane="3" > </vehicle>
    <vehicle id="W_E_97" type="standard_car" route="W_E" depart="9135.0" departLane="random" departSpeed="10" arrivalLane="3" > </vehicle>
    <vehicle id="W_E_98" type="standard_car" route="W_E" depart="9139.0" departLane="random" departSpeed="10" arrivalLane="1" > </vehicle>
    <vehicle id="E_N_99" type="standard_car" route="E_N" depart="9142.0" departLane="random" departSpeed="10" arrivalLane="1" > </vehicle>
    <vehicle id="E_W_100" type="standard_car" route="E_W" depart="9157.0" departLane="random" departSpeed="10" arrivalLane="3" > </vehicle>
    <vehicle id="E_N_101" type="standard_car" route="E_N" depart="9165.0" departLane="random" departSpeed="10" arrivalLane="0" > </vehicle>
    <vehicle id="W_E_102" type="standard_car" route="W_E" depart="9166.0" departLane="random" departSpeed="10" arrivalLane="0" > </vehicle>
    <vehicle id="W_E_103" type="standard_car" route="W_E" depart="9166.0" departLane="random" departSpeed="10" arrivalLane="2" > </vehicle>
    <vehicle id="W_E_104" type="standard_car" route="W_E" depart="9170.0" departLane="random" departSpeed="10" arrivalLane="0" > </vehicle>
    <vehicle id="W_E_105" type="standard_car" route="W_E" depart="9179.0" departLane="random" departSpeed="10" arrivalLane="0" > </vehicle>
    <vehicle id="E_W_106" type="standard_car" route="E_W" depart="9188.0" departLane="random" departSpeed="10" arrivalLane="3" > </vehicle>
    <vehicle id="W_E_107" type="standard_car" route="W_E" depart="9232.0" departLane="random" departSpeed="10" arrivalLane="2" > </vehicle>
    <vehicle id="W_E_108" type="standard_car" route="W_E" depart="9249.0" departLane="random" departSpeed="10" arrivalLane="2" > </vehicle>
    <vehicle id="W_E_109" type="standard_car" route="W_E" depart="9252.0" departLane="random" departSpeed="10" arrivalLane="2" > </vehicle>
    <vehicle id="E_N_110" type="standard_car" route="E_N" depart="9255.0" departLane="random" departSpeed="10" arrivalLane="3" > </vehicle>
    <vehicle id="E_W_111" type="standard_car" route="E_W" depart="9262.0" departLane="random" departSpeed="10" arrivalLane="1" > </vehicle>
    <vehicle id="W_E_112" type="standard_car" route="W_E" depart="9268.0" departLane="random" departSpeed="10" arrivalLane="2" > </vehicle>
    <vehicle id="N_S_113" type="standard_car" route="N_S" depart="9273.0" departLane="random" departSpeed="10" arrivalLane="2" > </vehicle>
    <vehicle id="S_N_114" type="standard_car" route="S_N" depart="9276.0" departLane="random" departSpeed="10" arrivalLane="0"> </vehicle>
    <vehicle id="E_N_115" type="standard_car" route="E_N" depart="9286.0" departLane="random" departSpeed="10" arrivalLane="3" > </vehicle>
    <vehicle id="S_N_116" type="standard_car" route="S_N" depart="9298.0" departLane="random" departSpeed="10" arrivalLane="3"> </vehicle>
    <vehicle id="E_W_117" type="standard_car" route="E_W" depart="9307.0" departLane="random" departSpeed="10" arrivalLane="0" > </vehicle>
    <vehicle id="N_W_118" type="standard_car" route="N_W" depart="9307.0" departLane="random" departSpeed="10" arrivalLane="0"> </vehicle>
    <vehicle id="S_N_119" type="standard_car" route="S_N" depart="9310.0" departLane="random" departSpeed="10" arrivalLane="0"> </vehicle>
    <vehicle id="W_E_120" type="standard_car" route="W_E" depart="9314.0" departLane="random" departSpeed="10" arrivalLane="2" > </vehicle>
    <vehicle id="S_N_121" type="standard_car" route="S_N" depart="9335.0" departLane="random" departSpeed="10" arrivalLane="2"> </vehicle>
    <vehicle id="W_E_122" type="standard_car" route="W_E" depart="9345.0" departLane="random" departSpeed="10" arrivalLane="0" > </vehicle>
    <vehicle id="N_E_123" type="standard_car" route="N_E" depart="9373.0" departLane="random" departSpeed="10" arrivalLane="2"> </vehicle>
    <vehicle id="S_N_124" type="standard_car" route="S_N" depart="9381.0" departLane="random" departSpeed="10" arrivalLane="2"> </vehicle>
    <vehicle id="S_N_125" type="standard_car" route="S_N" depart="9382.0" departLane="random" departSpeed="10" arrivalLane="0"> </vehicle>
    <vehicle id="N_W_126" type="standard_car" route="N_W" depart="9383.0" departLane="random" departSpeed="10" arrivalLane="0"> </vehicle>
    <vehicle id="E_W_127" type="standard_car" route="E_W" depart="9423.0" departLane="random" departSpeed="10" arrivalLane="0" > </vehicle>
    <vehicle id="N_S_128" type="standard_car" route="N_S" depart="9424.0" departLane="random" departSpeed="10" arrivalLane="2" > </vehicle>
    <vehicle id="W_N_129" type="standard_car" route="W_N" depart="9434.0" departLane="random" departSpeed="10" arrivalLane="3" > </vehicle>
    <vehicle id="E_N_130" type="standard_car" route="E_N" depart="9434.0" departLane="random" departSpeed="10" arrivalLane="3" > </vehicle>
    <vehicle id="S_N_131" type="standard_car" route="S_N" depart="9442.0" departLane="random" departSpeed="10" arrivalLane="2"> </vehicle>
    <vehicle id="E_W_132" type="standard_car" route="E_W" depart="9446.0" departLane="random" departSpeed="10" arrivalLane="1" > </vehicle>
    <vehicle id="E_N_133" type="standard_car" route="E_N" depart="9465.0" departLane="random" departSpeed="10" arrivalLane="2" > </vehicle>
    <vehicle id="N_S_134" type="standard_car" route="N_S" depart="9475.0" departLane="random" departSpeed="10" arrivalLane="1" > </vehicle>
    <vehicle id="W_S_135" type="standard_car" route="W_S" depart="9484.0" departLane="random" departSpeed="10" arrivalLane="0" > </vehicle>
    <vehicle id="W_S_136" type="standard_car" route="W_S" depart="9491.0" departLane="random" departSpeed="10" arrivalLane="1" > </vehicle>
    <vehicle id="E_N_137" type="standard_car" route="E_N" depart="9494.0" departLane="random" departSpeed="10" arrivalLane="3" > </vehicle>
    <vehicle id="N_S_138" type="standard_car" route="N_S" depart="9495.0" departLane="random" departSpeed="10" arrivalLane="2" > </vehicle>
    <vehicle id="E_W_139" type="standard_car" route="E_W" depart="9503.0" departLane="random" departSpeed="10" arrivalLane="1" > </vehicle>
    <vehicle id="E_W_140" type="standard_car" route="E_W" depart="9512.0" departLane="random" departSpeed="10" arrivalLane="0" > </vehicle>
    <vehicle id="S_N_141" type="standard_car" route="S_N" depart="9515.0" departLane="random" departSpeed="10" arrivalLane="2"> </vehicle>
    <vehicle id="E_S_142" type="standard_car" route="E_S" depart="9533.0" departLane="random" departSpeed="10" arrivalLane="1" > </vehicle>
    <vehicle id="N_W_143" type="standard_car" route="N_W" depart="9534.0" departLane="random" departSpeed="10" arrivalLane="0"> </vehicle>
    <vehicle id="E_W_144" type="standard_car" route="E_W" depart="9538.0" departLane="random" departSpeed="10" arrivalLane="2" > </vehicle>
    <vehicle id="E_W_145" type="standard_car" route="E_W" depart="9558.0" departLane="random" departSpeed="10" arrivalLane="1" > </vehicle>
    <vehicle id="E_W_146" type="standard_car" route="E_W" depart="9563.0" departLane="random" departSpeed="10" arrivalLane="2" > </vehicle>
    <vehicle id="N_E_147" type="standard_car" route="N_E" depart="9572.0" departLane="random" departSpeed="10" arrivalLane="2"> </vehicle>
    <vehicle id="E_S_148" type="standard_car" route="E_S" depart="9585.0" departLane="random" departSpeed="10" arrivalLane="2" > </vehicle>
    <vehicle id="E_S_149" type="standard_car" route="E_S" depart="9587.0" departLane="random" departSpeed="10" arrivalLane="3" > </vehicle>
    <vehicle id="N_S_150" type="standard_car" route="N_S" depart="9588.0" departLane="random" departSpeed="10" arrivalLane="0" > </vehicle>
    <vehicle id="E_N_151" type="standard_car" route="E_N" depart="9607.0" departLane="random" departSpeed="10" arrivalLane="3" > </vehicle>
    <vehicle id="N_S_152" type="standard_car" route="N_S" depart="9615.0" departLane="random" departSpeed="10" arrivalLane="1" > </vehicle>
    <vehicle id="E_W_153" type="standard_car" route="E_W" depart="9628.0" departLane="random" departSpeed="10" arrivalLane="3" > </vehicle>
    <vehicle id="W_S_154" type="standard_car" route="W_S" depart="9629.0" departLane="random" departSpeed="10" arrivalLane="2" > </vehicle>
    <vehicle id="W_E_155" type="standard_car" route="W_E" depart="9634.0" departLane="random" departSpeed="10" arrivalLane="0" > </vehicle>
    <vehicle id="W_E_156" type="standard_car" route="W_E" depart="9637.0" departLane="random" departSpeed="10" arrivalLane="0" > </vehicle>
    <vehicle id="W_E_157" type="standard_car" route="W_E" depart="9638.0" departLane="random" departSpeed="10" arrivalLane="0" > </vehicle>
    <vehicle id="W_E_158" type="standard_car" route="W_E" depart="9650.0" departLane="random" departSpeed="10" arrivalLane="1" > </vehicle>
    <vehicle id="W_E_159" type="standard_car" route="W_E" depart="9650.0" departLane="random" departSpeed="10" arrivalLane="3" > </vehicle>
    <vehicle id="N_S_160" type="standard_car" route="N_S" depart="9659.0" departLane="random" departSpeed="10" arrivalLane="0" > </vehicle>
    <vehicle id="S_N_161" type="standard_car" route="S_N" depart="9665.0" departLane="random" departSpeed="10" arrivalLane="1"> </vehicle>
    <vehicle id="W_E_162" type="standard_car" route="W_E" depart="9685.0" departLane="random" departSpeed="10" arrivalLane="0" > </vehicle>
    <vehicle id="N_E_163" type="standard_car" route="N_E" depart="9689.0" departLane="random" departSpeed="10" arrivalLane="0"> </vehicle>
    <vehicle id="W_E_164" type="standard_car" route="W_E" depart="9701.0" departLane="random" departSpeed="10" arrivalLane="2" > </vehicle>
    <vehicle id="N_W_165" type="standard_car" route="N_W" depart="9702.0" departLane="random" departSpeed="10" arrivalLane="3"> </vehicle>
    <vehicle id="W_E_166" type="standard_car" route="W_E" depart="9726.0" departLane="random" departSpeed="10" arrivalLane="0" > </vehicle>
    <vehicle id="N_E_167" type="standard_car" route="N_E" depart="9728.0" departLane="random" departSpeed="10" arrivalLane="0"> </vehicle>
    <vehicle id="E_W_168" type="standard_car" route="E_W" depart="9732.0" departLane="random" departSpeed="10" arrivalLane="2" > </vehicle>
    <vehicle id="W_E_169" type="standard_car" route="W_E" depart="9733.0" departLane="random" departSpeed="10" arrivalLane="0" > </vehicle>
    <vehicle id="E_W_170" type="standard_car" route="E_W" depart="9737.0" departLane="random" departSpeed="10" arrivalLane="3" > </vehicle>
    <vehicle id="E_W_171" type="standard_car" route="E_W" depart="9742.0" departLane="random" departSpeed="10" arrivalLane="3" > </vehicle>
    <vehicle id="E_W_172" type="standard_car" route="E_W" depart="9745.0" departLane="random" departSpeed="10" arrivalLane="1" > </vehicle>
    <vehicle id="S_N_173" type="standard_car" route="S_N" depart="9760.0" departLane="random" departSpeed="10" arrivalLane="1"> </vehicle>
    <vehicle id="N_W_174" type="standard_car" route="N_W" depart="9766.0" departLane="random" departSpeed="10" arrivalLane="0"> </vehicle>
    <vehicle id="N_W_175" type="standard_car" route="N_W" depart="9776.0" departLane="random" departSpeed="10" arrivalLane="1"> </vehicle>
    <vehicle id="W_E_176" type="standard_car" route="W_E" depart="9785.0" departLane="random" departSpeed="10" arrivalLane="2" > </vehicle>
    <vehicle id="N_W_177" type="standard_car" route="N_W" depart="9785.0" departLane="random" departSpeed="10" arrivalLane="3"> </vehicle>
    <vehicle id="E_W_178" type="standard_car" route="E_W" depart="9786.0" departLane="random" departSpeed="10" arrivalLane="3" > </vehicle>
    <vehicle id="W_E_179" type="standard_car" route="W_E" depart="9798.0" departLane="random" departSpeed="10" arrivalLane="1" > </vehicle>
    <vehicle id="E_W_180" type="standard_car" route="E_W" depart="9811.0" departLane="random" departSpeed="10" arrivalLane="2" > </vehicle>
    <vehicle id="W_E_181" type="standard_car" route="W_E" depart="9821.0" departLane="random" departSpeed="10" arrivalLane="2" > </vehicle>
    <vehicle id="W_E_182" type="standard_car" route="W_E" depart="9828.0" departLane="random" departSpeed="10" arrivalLane="1" > </vehicle>
    <vehicle id="W_E_183" type="standard_car" route="W_E" depart="9829.0" departLane="random" departSpeed="10" arrivalLane="1" > </vehicle>
    <vehicle id="E_W_184" type="standard_car" route="E_W" depart="9829.0" departLane="random" departSpeed="10" arrivalLane="3" > </vehicle>
    <vehicle id="N_S_185" type="standard_car" route="N_S" depart="9853.0" departLane="random" departSpeed="10" arrivalLane="1" > </vehicle>
    <vehicle id="W_E_186" type="standard_car" route="W_E" depart="9864.0" departLane="random" departSpeed="10" arrivalLane="2" > </vehicle>
    <vehicle id="S_N_187" type="standard_car" route="S_N" depart="9872.0" departLane="random" departSpeed="10" arrivalLane="3"> </vehicle>
    <vehicle id="S_N_188" type="standard_car" route="S_N" depart="9881.0" departLane="random" departSpeed="10" arrivalLane="0"> </vehicle>
    <vehicle id="W_E_189" type="standard_car" route="W_E" depart="9896.0" departLane="random" departSpeed="10" arrivalLane="3" > </vehicle>
    <vehicle id="E_W_190" type="standard_car" route="E_W" depart="9910.0" departLane="random" departSpeed="10" arrivalLane="3" > </vehicle>
    <vehicle id="W_E_191" type="standard_car" route="W_E" depart="9917.0" departLane="random" departSpeed="10" arrivalLane="0" > </vehicle>
    <vehicle id="E_W_192" type="standard_car" route="E_W" depart="9918.0" departLane="random" departSpeed="10" arrivalLane="0" > </vehicle>
    <vehicle id="W_E_193" type="standard_car" route="W_E" depart="9930.0" departLane="random" departSpeed="10" arrivalLane="1" > </vehicle>
    <vehicle id="S_W_194" type="standard_car" route="S_W" depart="9938.0" departLane="random" departSpeed="10" arrivalLane="0" > </vehicle>
    <vehicle id="E_W_195" type="standard_car" route="E_W" depart="9939.0" departLane="random" departSpeed="10" arrivalLane="0" > </vehicle>
    <vehicle id="E_W_196" type="standard_car" route="E_W" depart="9951.0" departLane="random" departSpeed="10" arrivalLane="1" > </vehicle>
    <vehicle id="E_N_197" type="standard_car" route="E_N" depart="9960.0" departLane="random" departSpeed="10" arrivalLane="3" > </vehicle>
    <vehicle id="S_N_198" type="standard_car" route="S_N" depart="9960.0" departLane="random" departSpeed="10" arrivalLane="0"> </vehicle>
    <vehicle id="E_W_199" type="standard_car" route="E_W" depart="9964.0" departLane="random" departSpeed="10" arrivalLane="1" > </vehicle>
    <vehicle id="N_S_200" type="standard_car" route="N_S" depart="9965.0" departLane="random" departSpeed="10" arrivalLane="1" > </vehicle>
    <vehicle id="S_N_201" type="standard_car" route="S_N" depart="9989.0" departLane="random" departSpeed="10" arrivalLane="0"> </vehicle>
    <vehicle id="E_W_202" type="standard_car" route="E_W" depart="9990.0" departLane="random" departSpeed="10" arrivalLane="2" > </vehicle>
    <vehicle id="E_W_203" type="standard_car" route="E_W" depart="9995.0" departLane="random" departSpeed="10" arrivalLane="2" > </vehicle>
    <vehicle id="E_W_204" type="standard_car" route="E_W" depart="10019.0" departLane="random" departSpeed="10" arrivalLane="1" > </vehicle>
    <vehicle id="S_W_205" type="standard_car" route="S_W" depart="10036.0" departLane="random" departSpeed="10" arrivalLane="1" > </vehicle>
    <vehicle id="E_W_206" type="standard_car" route="E_W" depart="10038.0" departLane="random" departSpeed="10" arrivalLane="2" > </vehicle>
    <vehicle id="S_N_207" type="standard_car" route="S_N" depart="10044.0" departLane="random" departSpeed="10" arrivalLane="1"> </vehicle>
    <vehicle id="N_S_208" type="standard_car" route="N_S" depart="10046.0" departLane="random" departSpeed="10" arrivalLane="1" > </vehicle>
    <vehicle id="E_W_209" type="standard_car" route="E_W" depart="10047.0" departLane="random" departSpeed="10" arrivalLane="0" > </vehicle>