<routes>
            <vType accel="1.0" decel="4.5" id="standard_car" length="5.0" minGap="2.5" maxSpeed="25" sigma="0.5" />

            <route id="W_N" edges="W2TL TL2N"/>
            <route id="W_E" edges="W2TL TL2E"/>
            <route id="W_S" edges="W2TL TL2S"/>
            <route id="N_W" edges="N2TL TL2W"/>
            <route id="N_E" edges="N2TL TL2E"/>
            <route id="N_S" edges="N2TL TL2S"/>
            <route id="E_W" edges="E2TL TL2W"/>
            <route id="E_N" edges="E2TL TL2N"/>
            <route id="E_S" edges="E2TL TL2S"/>
            <route id="S_W" edges="S2TL TL2W"/>
            <route id="S_N" edges="S2TL TL2N"/>
            <route id="S_E" edges="S2TL TL2E"/>
    <vehicle id="E_W_0" type="standard_car" route="E_W" depart="18.0" departLane="random" departSpeed="10" arrivalLane="0">  </vehicle>
    <vehicle id="S_N_1" type="standard_car" route="S_N" depart="19.0" departLane="random" departSpeed="10" arrivalLane="3">  </vehicle>
    <vehicle id="N_E_2" type="standard_car" route="N_E" depart="28.0" departLane="random" departSpeed="10" arrivalLane="2">  </vehicle>
    <vehicle id="W_E_3" type="standard_car" route="W_E" depart="29.0" departLane="random" departSpeed="10" arrivalLane="1">  </vehicle>
    <vehicle id="S_E_4" type="standard_car" route="S_E" depart="32.0" departLane="random" departSpeed="10" arrivalLane="0">  </vehicle>
    <vehicle id="W_E_5" type="standard_car" route="W_E" depart="38.0" departLane="random" departSpeed="10" arrivalLane="0">  </vehicle>
    <vehicle id="S_N_6" type="standard_car" route="S_N" depart="39.0" departLane="random" departSpeed="10" arrivalLane="3">  </vehicle>
    <vehicle id="S_N_7" type="standard_car" route="S_N" depart="40.0" departLane="random" departSpeed="10" arrivalLane="0">  </vehicle>
    <vehicle id="W_E_8" type="standard_car" route="W_E" depart="41.0" departLane="random" departSpeed="10" arrivalLane="0">  </vehicle>
    <vehicle id="E_S_9" type="standard_car" route="E_S" depart="50.0" departLane="random" departSpeed="10" arrivalLane="0">  </vehicle>
    <vehicle id="N_S_10" type="standard_car" route="N_S" depart="54.0" departLane="random" departSpeed="10" arrivalLane="1">  </vehicle>
    <vehicle id="E_W_11" type="standard_car" route="E_W" depart="61.0" departLane="random" departSpeed="10" arrivalLane="1">  </vehicle>
    <vehicle id="S_N_12" type="standard_car" route="S_N" depart="65.0" departLane="random" departSpeed="10" arrivalLane="1">  </vehicle>
    <vehicle id="S_N_13" type="standard_car" route="S_N" depart="73.0" departLane="random" departSpeed="10" arrivalLane="0">  </vehicle>
    <vehicle id="E_S_14" type="standard_car" route="E_S" depart="76.0" departLane="random" departSpeed="10" arrivalLane="1">  </vehicle>
    <vehicle id="W_N_15" type="standard_car" route="W_N" depart="79.0" departLane="random" departSpeed="10" arrivalLane="0">  </vehicle>
    <vehicle id="N_S_16" type="standard_car" route="N_S" depart="81.0" departLane="random" departSpeed="10" arrivalLane="0">  </vehicle>
    <vehicle id="N_S_17" type="standard_car" route="N_S" depart="83.0" departLane="random" departSpeed="10" arrivalLane="1">  </vehicle>
    <vehicle id="E_S_18" type="standard_car" route="E_S" depart="83.0" departLane="random" departSpeed="10" arrivalLane="3">  </vehicle>
    <vehicle id="W_E_19" type="standard_car" route="W_E" depart="85.0" departLane="random" departSpeed="10" arrivalLane="3">  </vehicle>
    <vehicle id="S_N_20" type="standard_car" route="S_N" depart="88.0" departLane="random" departSpeed="10" arrivalLane="1">  </vehicle>
    <vehicle id="W_N_21" type="standard_car" route="W_N" depart="88.0" departLane="random" departSpeed="10" arrivalLane="2">  </vehicle>
    <vehicle id="S_N_22" type="standard_car" route="S_N" depart="91.0" departLane="random" departSpeed="10" arrivalLane="3">  </vehicle>
    <vehicle id="W_E_23" type="standard_car" route="W_E" depart="96.0" departLane="random" departSpeed="10" arrivalLane="0">  </vehicle>
    <vehicle id="S_N_24" type="standard_car" route="S_N" depart="96.0" departLane="random" departSpeed="10" arrivalLane="1">  </vehicle>
    <vehicle id="E_W_25" type="standard_car" route="E_W" depart="98.0" departLane="random" departSpeed="10" arrivalLane="0">  </vehicle>
    <vehicle id="S_W_26" type="standard_car" route="S_W" depart="99.0" departLane="random" departSpeed="10" arrivalLane="3">  </vehicle>
    <vehicle id="E_W_27" type="standard_car" route="E_W" depart="102.0" departLane="random" departSpeed="10" arrivalLane="0">  </vehicle>
    <vehicle id="S_N_28" type="standard_car" route="S_N" depart="106.0" departLane="random" departSpeed="10" arrivalLane="1">  </vehicle>
    <vehicle id="W_S_29" type="standard_car" route="W_S" depart="109.0" departLane="random" departSpeed="10" arrivalLane="1">  </vehicle>
    <vehicle id="W_E_30" type="standard_car" route="W_E" depart="111.0" departLane="random" departSpeed="10" arrivalLane="3">  </vehicle>
    <vehicle id="W_E_31" type="standard_car" route="W_E" depart="114.0" departLane="random" departSpeed="10" arrivalLane="1">  </vehicle>
    <vehicle id="N_S_32" type="standard_car" route="N_S" depart="117.0" departLane="random" departSpeed="10" arrivalLane="0">  </vehicle>
    <vehicle id="E_W_33" type="standard_car" route="E_W" depart="118.0" departLane="random" departSpeed="10" arrivalLane="1">  </vehicle>
    <vehicle id="N_S_34" type="standard_car" route="N_S" depart="119.0" departLane="random" departSpeed="10" arrivalLane="2">  </vehicle>
    <vehicle id="W_E_35" type="standard_car" route="W_E" depart="122.0" departLane="random" departSpeed="10" arrivalLane="3">  </vehicle>
    <vehicle id="S_N_36" type="standard_car" route="S_N" depart="122.0" departLane="random" departSpeed="10" arrivalLane="3">  </vehicle>
    <vehicle id="W_E_37" type="standard_car" route="W_E" depart="122.0" departLane="random" departSpeed="10" arrivalLane="3">  </vehicle>
    <vehicle id="S_N_38" type="standard_car" route="S_N" depart="122.0" departLane="random" departSpeed="10" arrivalLane="2">  </vehicle>
    <vehicle id="S_N_39" type="standard_car" route="S_N" depart="123.0" departLane="random" departSpeed="10" arrivalLane="3">  </vehicle>
    <vehicle id="W_S_40" type="standard_car" route="W_S" depart="125.0" departLane="random" departSpeed="10" arrivalLane="0">  </vehicle>
    <vehicle id="W_E_41" type="standard_car" route="W_E" depart="126.0" departLane="random" departSpeed="10" arrivalLane="2">  </vehicle>
    <vehicle id="E_W_42" type="standard_car" route="E_W" depart="126.0" departLane="random" departSpeed="10" arrivalLane="0">  </vehicle>
    <vehicle id="W_E_43" type="standard_car" route="W_E" depart="126.0" departLane="random" departSpeed="10" arrivalLane="1">  </vehicle>
    <vehicle id="N_S_44" type="standard_car" route="N_S" depart="127.0" departLane="random" departSpeed="10" arrivalLane="2">  </vehicle>
    <vehicle id="E_S_45" type="standard_car" route="E_S" depart="129.0" departLane="random" departSpeed="10" arrivalLane="2">  </vehicle>
    <vehicle id="W_S_46" type="standard_car" route="W_S" depart="130.0" departLane="random" departSpeed="10" arrivalLane="2">  </vehicle>
    <vehicle id="W_N_47" type="standard_car" route="W_N" depart="131.0" departLane="random" departSpeed="10" arrivalLane="3">  </vehicle>
    <vehicle id="N_S_48" type="standard_car" route="N_S" depart="132.0" departLane="random" departSpeed="10" arrivalLane="2">  </vehicle>
    <vehicle id="N_S_49" type="standard_car" route="N_S" depart="133.0" departLane="random" departSpeed="10" arrivalLane="3">  </vehicle>
    <vehicle id="W_E_50" type="standard_car" route="W_E" depart="137.0" departLane="random" departSpeed="10" arrivalLane="0">  </vehicle>
    <vehicle id="E_W_51" type="standard_car" route="E_W" depart="139.0" departLane="random" departSpeed="10" arrivalLane="0">  </vehicle>
    <vehicle id="S_N_52" type="standard_car" route="S_N" depart="140.0" departLane="random" departSpeed="10" arrivalLane="2">  </vehicle>
    <vehicle id="N_W_53" type="standard_car" route="N_W" depart="143.0" departLane="random" departSpeed="10" arrivalLane="2">  </vehicle>
    <vehicle id="W_E_54" type="standard_car" route="W_E" depart="143.0" departLane="random" departSpeed="10" arrivalLane="2">  </vehicle>
    <vehicle id="S_N_55" type="standard_car" route="S_N" depart="144.0" departLane="random" departSpeed="10" arrivalLane="3">  </vehicle>
    <vehicle id="E_N_56" type="standard_car" route="E_N" depart="144.0" departLane="random" departSpeed="10" arrivalLane="2">  </vehicle>
    <vehicle id="E_W_57" type="standard_car" route="E_W" depart="145.0" departLane="random" departSpeed="10" arrivalLane="3">  </vehicle>
    <vehicle id="N_S_58" type="standard_car" route="N_S" depart="145.0" departLane="random" departSpeed="10" arrivalLane="1">  </vehicle>
    <vehicle id="W_E_59" type="standard_car" route="W_E" depart="145.0" departLane="random" departSpeed="10" arrivalLane="3">  </vehicle>
    <vehicle id="W_E_60" type="standard_car" route="W_E" depart="147.0" departLane="random" departSpeed="10" arrivalLane="2">  </vehicle>
    <vehicle id="E_N_61" type="standard_car" route="E_N" depart="148.0" departLane="random" departSpeed="10" arrivalLane="3">  </vehicle>
    <vehicle id="W_E_62" type="standard_car" route="W_E" depart="148.0" departLane="random" departSpeed="10" arrivalLane="1">  </vehicle>
    <vehicle id="W_E_63" type="standard_car" route="W_E" depart="148.0" departLane="random" departSpeed="10" arrivalLane="1">  </vehicle>
    <vehicle id="W_S_64" type="standard_car" route="W_S" depart="148.0" departLane="random" departSpeed="10" arrivalLane="1">  </vehicle>
    <vehicle id="N_S_65" type="standard_car" route="N_S" depart="148.0" departLane="random" departSpeed="10" arrivalLane="3">  </vehicle>
    <vehicle id="S_W_66" type="standard_car" route="S_W" depart="150.0" departLane="random" departSpeed="10" arrivalLane="3">  </vehicle>
    <vehicle id="W_N_67" type="standard_car" route="W_N" depart="150.0" departLane="random" departSpeed="10" arrivalLane="2">  </vehicle>
    <vehicle id="S_N_68" type="standard_car" route="S_N" depart="150.0" departLane="random" departSpeed="10" arrivalLane="1">  </vehicle>
    <vehicle id="N_S_69" type="standard_car" route="N_S" depart="151.0" departLane="random" departSpeed="10" arrivalLane="3">  </vehicle>
    <vehicle id="W_E_70" type="standard_car" route="W_E" depart="151.0" departLane="random" departSpeed="10" arrivalLane="3">  </vehicle>
    <vehicle id="S_W_71" type="standard_car" route="S_W" depart="152.0" departLane="random" departSpeed="10" arrivalLane="3">  </vehicle>
    <vehicle id="E_W_72" type="standard_car" route="E_W" depart="152.0" departLane="random" departSpeed="10" arrivalLane="1">  </vehicle>
    <vehicle id="N_S_73" type="standard_car" route="N_S" depart="153.0" departLane="random" departSpeed="10" arrivalLane="0">  </vehicle>
    <vehicle id="N_S_74" type="standard_car" route="N_S" depart="155.0" departLane="random" departSpeed="10" arrivalLane="1">  </vehicle>
    <vehicle id="S_N_75" type="standard_car" route="S_N" depart="155.0" departLane="random" departSpeed="10" arrivalLane="2">  </vehicle>
    <vehicle id="W_N_76" type="standard_car" route="W_N" depart="158.0" departLane="random" departSpeed="10" arrivalLane="0">  </vehicle>
    <vehicle id="S_W_77" type="standard_car" route="S_W" depart="159.0" departLane="random" departSpeed="10" arrivalLane="1">  </vehicle>
    <vehicle id="W_E_78" type="standard_car" route="W_E" depart="159.0" departLane="random" departSpeed="10" arrivalLane="2">  </vehicle>
    <vehicle id="S_N_79" type="standard_car" route="S_N" depart="160.0" departLane="random" departSpeed="10" arrivalLane="0">  </vehicle>
    <vehicle id="S_N_80" type="standard_car" route="S_N" depart="161.0" departLane="random" departSpeed="10" arrivalLane="0">  </vehicle>
    <vehicle id="S_N_81" type="standard_car" route="S_N" depart="162.0" departLane="random" departSpeed="10" arrivalLane="0">  </vehicle>
    <vehicle id="W_E_82" type="standard_car" route="W_E" depart="162.0" departLane="random" departSpeed="10" arrivalLane="0">  </vehicle>
    <vehicle id="W_E_83" type="standard_car" route="W_E" depart="164.0" departLane="random" departSpeed="10" arrivalLane="3">  </vehicle>
    <vehicle id="W_E_84" type="standard_car" route="W_E" depart="164.0" departLane="random" departSpeed="10" arrivalLane="3">  </vehicle>
    <vehicle id="N_S_85" type="standard_car" route="N_S" depart="165.0" departLane="random" departSpeed="10" arrivalLane="3">  </vehicle>
    <vehicle id="S_N_86" type="standard_car" route="S_N" depart="166.0" departLane="random" departSpeed="10" arrivalLane="2">  </vehicle>
    <vehicle id="N_S_87" type="standard_car" route="N_S" depart="169.0" departLane="random" departSpeed="10" arrivalLane="1">  </vehicle>
    <vehicle id="S_N_88" type="standard_car" route="S_N" depart="169.0" departLane="random" departSpeed="10" arrivalLane="1">  </vehicle>
    <vehicle id="N_S_89" type="standard_car" route="N_S" depart="171.0" departLane="random" departSpeed="10" arrivalLane="1">  </vehicle>
    <vehicle id="W_E_90" type="standard_car" route="W_E" depart="172.0" departLane="random" departSpeed="10" arrivalLane="1">  </vehicle>
    <vehicle id="N_S_91" type="standard_car" route="N_S" depart="175.0" departLane="random" departSpeed="10" arrivalLane="1">  </vehicle>
    <vehicle id="S_N_92" type="standard_car" route="S_N" depart="176.0" departLane="random" departSpeed="10" arrivalLane="3">  </vehicle>
    <vehicle id="W_E_93" type="standard_car" route="W_E" depart="176.0" departLane="random" departSpeed="10" arrivalLane="0">  </vehicle>
    <vehicle id="E_S_94" type="standard_car" route="E_S" depart="176.0" departLane="random" departSpeed="10" arrivalLane="3">  </vehicle>
    <vehicle id="W_E_95" type="standard_car" route="W_E" depart="176.0" departLane="random" departSpeed="10" arrivalLane="2">  </vehicle>
    <vehicle id="S_N_96" type="standard_car" route="S_N" depart="176.0" departLane="random" departSpeed="10" arrivalLane="2">  </vehicle>
    <vehicle id="W_E_97" type="standard_car" route="W_E" depart="178.0" departLane="random" departSpeed="10" arrivalLane="0">  </vehicle>
    <vehicle id="S_N_98" type="standard_car" route="S_N" depart="180.0" departLane="random" departSpeed="10" arrivalLane="0">  </vehicle>
    <vehicle id="E_W_99" type="standard_car" route="E_W" depart="181.0" departLane="random" departSpeed="10" arrivalLane="1">  </vehicle>
    <vehicle id="E_W_100" type="standard_car" route="E_W" depart="182.0" departLane="random" departSpeed="10" arrivalLane="0">  </vehicle>
    <vehicle id="W_E_101" type="standard_car" route="W_E" depart="182.0" departLane="random" departSpeed="10" arrivalLane="2">  </vehicle>
    <vehicle id="E_W_102" type="standard_car" route="E_W" depart="183.0" departLane="random" departSpeed="10" arrivalLane="3">  </vehicle>
    <vehicle id="E_N_103" type="standard_car" route="E_N" depart="186.0" departLane="random" departSpeed="10" arrivalLane="1">  </vehicle>
    <vehicle id="N_S_104" type="standard_car" route="N_S" depart="187.0" departLane="random" departSpeed="10" arrivalLane="3">  </vehicle>
    <vehicle id="S_N_105" type="standard_car" route="S_N" depart="187.0" departLane="random" departSpeed="10" arrivalLane="0">  </vehicle>
    <vehicle id="N_E_106" type="standard_car" route="N_E" depart="187.0" departLane="random" departSpeed="10" arrivalLane="2">  </vehicle>
    <vehicle id="E_S_107" type="standard_car" route="E_S" depart="189.0" departLane="random" departSpeed="10" arrivalLane="2">  </vehicle>
    <vehicle id="S_N_108" type="standard_car" route="S_N" depart="191.0" departLane="random" departSpeed="10" arrivalLane="1">  </vehicle>
    <vehicle id="N_S_109" type="standard_car" route="N_S" depart="191.0" departLane="random" departSpeed="10" arrivalLane="1">  </vehicle>
    <vehicle id="E_W_110" type="standard_car" route="E_W" depart="191.0" departLane="random" departSpeed="10" arrivalLane="1">  </vehicle>
    <vehicle id="E_W_111" type="standard_car" route="E_W" depart="193.0" departLane="random" departSpeed="10" arrivalLane="3">  </vehicle>
    <vehicle id="E_W_112" type="standard_car" route="E_W" depart="196.0" departLane="random" departSpeed="10" arrivalLane="1">  </vehicle>
    <vehicle id="S_E_113" type="standard_car" route="S_E" depart="196.0" departLane="random" departSpeed="10" arrivalLane="0">  </vehicle>
    <vehicle id="E_N_114" type="standard_car" route="E_N" depart="197.0" departLane="random" departSpeed="10" arrivalLane="2">  </vehicle>
    <vehicle id="N_S_115" type="standard_car" route="N_S" depart="197.0" departLane="random" departSpeed="10" arrivalLane="1">  </vehicle>
    <vehicle id="N_S_116" type="standard_car" route="N_S" depart="197.0" departLane="random" departSpeed="10" arrivalLane="2">  </vehicle>
    <vehicle id="E_W_117" type="standard_car" route="E_W" depart="198.0" departLane="random" departSpeed="10" arrivalLane="1">  </vehicle>
    <vehicle id="E_W_118" type="standard_car" route="E_W" depart="200.0" departLane="random" departSpeed="10" arrivalLane="2">  </vehicle>
    <vehicle id="N_S_119" type="standard_car" route="N_S" depart="200.0" departLane="random" departSpeed="10" arrivalLane="2">  </vehicle>
    <vehicle id="E_W_120" type="standard_car" route="E_W" depart="201.0" departLane="random" departSpeed="10" arrivalLane="1">  </vehicle>
    <vehicle id="N_S_121" type="standard_car" route="N_S" depart="201.0" departLane="random" departSpeed="10" arrivalLane="0">  </vehicle>
    <vehicle id="E_W_122" type="standard_car" route="E_W" depart="202.0" departLane="random" departSpeed="10" arrivalLane="0">  </vehicle>
    <vehicle id="E_W_123" type="standard_car" route="E_W" depart="203.0" departLane="random" departSpeed="10" arrivalLane="3">  </vehicle>
    <vehicle id="E_W_124" type="standard_car" route="E_W" depart="203.0" departLane="random" departSpeed="10" arrivalLane="1">  </vehicle>
    <vehicle id="E_W_125" type="standard_car" route="E_W" depart="203.0" departLane="random" departSpeed="10" arrivalLane="0">  </vehicle>
    <vehicle id="S_W_126" type="standard_car" route="S_W" depart="203.0" departLane="random" departSpeed="10" arrivalLane="1">  </vehicle>
    <vehicle id="N_S_127" type="standard_car" route="N_S" depart="204.0" departLane="random" departSpeed="10" arrivalLane="0">  </vehicle>
    <vehicle id="S_N_128" type="standard_car" route="S_N" depart="204.0" departLane="random" departSpeed="10" arrivalLane="2">  </vehicle>
    <vehicle id="E_W_129" type="standard_car" route="E_W" depart="206.0" departLane="random" departSpeed="10" arrivalLane="2">  </vehicle>
    <vehicle id="E_N_130" type="standard_car" route="E_N" depart="207.0" departLane="random" departSpeed="10" arrivalLane="1">  </vehicle>
    <vehicle id="S_E_131" type="standard_car" route="S_E" depart="207.0" departLane="random" departSpeed="10" arrivalLane="2">  </vehicle>
    <vehicle id="W_E_132" type="standard_car" route="W_E" depart="207.0" departLane="random" departSpeed="10" arrivalLane="0">  </vehicle>
    <vehicle id="W_E_133" type="standard_car" route="W_E" depart="208.0" departLane="random" departSpeed="10" arrivalLane="2">  </vehicle>
    <vehicle id="N_S_134" type="standard_car" route="N_S" depart="208.0" departLane="random" departSpeed="10" arrivalLane="2">  </vehicle>
    <vehicle id="E_W_135" type="standard_car" route="E_W" depart="208.0" departLane="random" departSpeed="10" arrivalLane="2">  </vehicle>
    <vehicle id="N_E_136" type="standard_car" route="N_E" depart="209.0" departLane="random" departSpeed="10" arrivalLane="3">  </vehicle>
    <vehicle id="N_S_137" type="standard_car" route="N_S" depart="209.0" departLane="random" departSpeed="10" arrivalLane="1">  </vehicle>
    <vehicle id="W_E_138" type="standard_car" route="W_E" depart="209.0" departLane="random" departSpeed="10" arrivalLane="1">  </vehicle>
    <vehicle id="S_N_139" type="standard_car" route="S_N" depart="210.0" departLane="random" departSpeed="10" arrivalLane="1">  </vehicle>
    <vehicle id="S_N_140" type="standard_car" route="S_N" depart="211.0" departLane="random" departSpeed="10" arrivalLane="1">  </vehicle>
    <vehicle id="W_E_141" type="standard_car" route="W_E" depart="211.0" departLane="random" departSpeed="10" arrivalLane="1">  </vehicle>
    <vehicle id="W_S_142" type="standard_car" route="W_S" depart="211.0" departLane="random" departSpeed="10" arrivalLane="2">  </vehicle>
    <vehicle id="E_N_143" type="standard_car" route="E_N" depart="212.0" departLane="random" departSpeed="10" arrivalLane="2">  </vehicle>
    <vehicle id="N_S_144" type="standard_car" route="N_S" depart="213.0" departLane="random" departSpeed="10" arrivalLane="1">  </vehicle>
    <vehicle id="S_N_145" type="standard_car" route="S_N" depart="213.0" departLane="random" departSpeed="10" arrivalLane="0">  </vehicle>
    <vehicle id="S_N_146" type="standard_car" route="S_N" depart="215.0" departLane="random" departSpeed="10" arrivalLane="3">  </vehicle>
    <vehicle id="S_E_147" type="standard_car" route="S_E" depart="215.0" departLane="random" departSpeed="10" arrivalLane="2">  </vehicle>
    <vehicle id="S_N_148" type="standard_car" route="S_N" depart="217.0" departLane="random" departSpeed="10" arrivalLane="0">  </vehicle>
    <vehicle id="E_N_149" type="standard_car" route="E_N" depart="218.0" departLane="random" departSpeed="10" arrivalLane="3">  </vehicle>
    <vehicle id="E_W_150" type="standard_car" route="E_W" depart="219.0" departLane="random" departSpeed="10" arrivalLane="2">  </vehicle>
    <vehicle id="W_S_151" type="standard_car" route="W_S" depart="220.0" departLane="random" departSpeed="10" arrivalLane="2">  </vehicle>
    <vehicle id="E_W_152" type="standard_car" route="E_W" depart="220.0" departLane="random" departSpeed="10" arrivalLane="1">  </vehicle>
    <vehicle id="W_E_153" type="standard_car" route="W_E" depart="222.0" departLane="random" departSpeed="10" arrivalLane="0">  </vehicle>
    <vehicle id="W_E_154" type="standard_car" route="W_E" depart="222.0" departLane="random" departSpeed="10" arrivalLane="3">  </vehicle>
    <vehicle id="W_E_155" type="standard_car" route="W_E" depart="224.0" departLane="random" departSpeed="10" arrivalLane="0">  </vehicle>
    <vehicle id="W_E_156" type="standard_car" route="W_E" depart="224.0" departLane="random" departSpeed="10" arrivalLane="0">  </vehicle>
    <vehicle id="S_N_157" type="standard_car" route="S_N" depart="224.0" departLane="random" departSpeed="10" arrivalLane="0">  </vehicle>
    <vehicle id="W_E_158" type="standard_car" route="W_E" depart="225.0" departLane="random" departSpeed="10" arrivalLane="1">  </vehicle>
    <vehicle id="W_S_159" type="standard_car" route="W_S" depart="227.0" departLane="random" departSpeed="10" arrivalLane="3">  </vehicle>
    <vehicle id="W_N_160" type="standard_car" route="W_N" depart="228.0" departLane="random" departSpeed="10" arrivalLane="0">  </vehicle>
    <vehicle id="S_E_161" type="standard_car" route="S_E" depart="229.0" departLane="random" departSpeed="10" arrivalLane="1">  </vehicle>
    <vehicle id="S_E_162" type="standard_car" route="S_E" depart="229.0" departLane="random" departSpeed="10" arrivalLane="2">  </vehicle>
    <vehicle id="N_S_163" type="standard_car" route="N_S" depart="229.0" departLane="random" departSpeed="10" arrivalLane="3">  </vehicle>
    <vehicle id="W_E_164" type="standard_car" route="W_E" depart="229.0" departLane="random" departSpeed="10" arrivalLane="2">  </vehicle>
    <vehicle id="S_N_165" type="standard_car" route="S_N" depart="230.0" departLane="random" departSpeed="10" arrivalLane="2">  </vehicle>
    <vehicle id="E_W_166" type="standard_car" route="E_W" depart="231.0" departLane="random" departSpeed="10" arrivalLane="0">  </vehicle>
    <vehicle id="W_S_167" type="standard_car" route="W_S" depart="234.0" departLane="random" departSpeed="10" arrivalLane="3">  </vehicle>
    <vehicle id="E_W_168" type="standard_car" route="E_W" depart="234.0" departLane="random" departSpeed="10" arrivalLane="0">  </vehicle>
    <vehicle id="S_N_169" type="standard_car" route="S_N" depart="234.0" departLane="random" departSpeed="10" arrivalLane="3">  </vehicle>
    <vehicle id="E_W_170" type="standard_car" route="E_W" depart="236.0" departLane="random" departSpeed="10" arrivalLane="0">  </vehicle>
    <vehicle id="S_E_171" type="standard_car" route="S_E" depart="237.0" departLane="random" departSpeed="10" arrivalLane="2">  </vehicle>
    <vehicle id="N_W_172" type="standard_car" route="N_W" depart="237.0" departLane="random" departSpeed="10" arrivalLane="1">  </vehicle>
    <vehicle id="E_W_173" type="standard_car" route="E_W" depart="238.0" departLane="random" departSpeed="10" arrivalLane="0">  </vehicle>
    <vehicle id="S_N_174" type="standard_car" route="S_N" depart="239.0" departLane="random" departSpeed="10" arrivalLane="1">  </vehicle>
    <vehicle id="W_E_175" type="standard_car" route="W_E" depart="240.0" departLane="random" departSpeed="10" arrivalLane="0">  </vehicle>
    <vehicle id="W_E_176" type="standard_car" route="W_E" depart="241.0" departLane="random" departSpeed="10" arrivalLane="1">  </vehicle>
    <vehicle id="E_W_177" type="standard_car" route="E_W" depart="242.0" departLane="random" departSpeed="10" arrivalLane="1">  </vehicle>
    <vehicle id="W_N_178" type="standard_car" route="W_N" depart="244.0" departLane="random" departSpeed="10" arrivalLane="1">  </vehicle>
    <vehicle id="W_S_179" type="standard_car" route="W_S" depart="245.0" departLane="random" departSpeed="10" arrivalLane="2">  </vehicle>
    <vehicle id="W_E_180" type="standard_car" route="W_E" depart="245.0" departLane="random" departSpeed="10" arrivalLane="0">  </vehicle>
    <vehicle id="E_W_181" type="standard_car" route="E_W" depart="245.0" departLane="random" departSpeed="10" arrivalLane="2">  </vehicle>
    <vehicle id="N_S_182" type="standard_car" route="N_S" depart="245.0" departLane="random" departSpeed="10" arrivalLane="3">  </vehicle>
    <vehicle id="E_W_183" type="standard_car" route="E_W" depart="246.0" departLane="random" departSpeed="10" arrivalLane="0">  </vehicle>
    <vehicle id="W_E_184" type="standard_car" route="W_E" depart="247.0" departLane="random" departSpeed="10" arrivalLane="3">  </vehicle>
    <vehicle id="W_E_185" type="standard_car" route="W_E" depart="249.0" departLane="random" departSpeed="10" arrivalLane="1">  </vehicle>
    <vehicle id="N_S_186" type="standard_car" route="N_S" depart="249.0" departLane="random" departSpeed="10" arrivalLane="1">  </vehicle>
    <vehicle id="W_E_187" type="standard_car" route="W_E" depart="250.0" departLane="random" departSpeed="10" arrivalLane="2">  </vehicle>
    <vehicle id="E_W_188" type="standard_car" route="E_W" depart="250.0" departLane="random" departSpeed="10" arrivalLane="3">  </vehicle>
    <vehicle id="S_N_189" type="standard_car" route="S_N" depart="250.0" departLane="random" departSpeed="10" arrivalLane="0">  </vehicle>
    <vehicle id="W_E_190" type="standard_car" route="W_E" depart="251.0" departLane="random" departSpeed="10" arrivalLane="0">  </vehicle>
    <vehicle id="W_E_191" type="standard_car" route="W_E" depart="251.0" departLane="random" departSpeed="10" arrivalLane="2">  </vehicle>
    <vehicle id="N_S_192" type="standard_car" route="N_S" depart="253.0" departLane="random" departSpeed="10" arrivalLane="2">  </vehicle>
    <vehicle id="E_S_193" type="standard_car" route="E_S" depart="253.0" departLane="random" departSpeed="10" arrivalLane="1">  </vehicle>
    <vehicle id="N_E_194" type="standard_car" route="N_E" depart="253.0" departLane="random" departSpeed="10" arrivalLane="0">  </vehicle>
    <vehicle id="N_S_195" type="standard_car" route="N_S" depart="255.0" departLane="random" departSpeed="10" arrivalLane="2">  </vehicle>
    <vehicle id="E_W_196" type="standard_car" route="E_W" depart="255.0" departLane="random" departSpeed="10" arrivalLane="2">  </vehicle>
    <vehicle id="W_E_197" type="standard_car" route="W_E" depart="257.0" departLane="random" departSpeed="10" arrivalLane="3">  </vehicle>
    <vehicle id="E_W_198" type="standard_car" route="E_W" depart="258.0" departLane="random" departSpeed="10" arrivalLane="1">  </vehicle>
    <vehicle id="N_S_199" type="standard_car" route="N_S" depart="259.0" departLane="random" departSpeed="10" arrivalLane="1">  </vehicle>
    <vehicle id="N_S_200" type="standard_car" route="N_S" depart="259.0" departLane="random" departSpeed="10" arrivalLane="1">  </vehicle>
    <vehicle id="N_S_201" type="standard_car" route="N_S" depart="260.0" departLane="random" departSpeed="10" arrivalLane="0">  </vehicle>
    <vehicle id="N_S_202" type="standard_car" route="N_S" depart="260.0" departLane="random" departSpeed="10" arrivalLane="2">  </vehicle>
    <vehicle id="E_S_203" type="standard_car" route="E_S" depart="260.0" departLane="random" departSpeed="10" arrivalLane="1">  </vehicle>
    <vehicle id="E_S_204" type="standard_car" route="E_S" depart="261.0" departLane="random" departSpeed="10" arrivalLane="1">  </vehicle>
    <vehicle id="E_W_205" type="standard_car" route="E_W" depart="261.0" departLane="random" departSpeed="10" arrivalLane="3">  </vehicle>
    <vehicle id="W_E_206" type="standard_car" route="W_E" depart="261.0" departLane="random" departSpeed="10" arrivalLane="1">  </vehicle>
    <vehicle id="S_N_207" type="standard_car" route="S_N" depart="262.0" departLane="random" departSpeed="10" arrivalLane="2">  </vehicle>
    <vehicle id="N_S_208" type="standard_car" route="N_S" depart="262.0" departLane="random" departSpeed="10" arrivalLane="3">  </vehicle>
    <vehicle id="W_N_209" type="standard_car" route="W_N" depart="263.0" departLane="random" departSpeed="10" arrivalLane="0">  </vehicle>
    <vehicle id="W_N_210" type="standard_car" route="W_N" depart="263.0" departLane="random" departSpeed="10" arrivalLane="3">  </vehicle>