<routes>
            <vType accel="1.0" decel="4.5" id="standard_car" length="5.0" minGap="2.5" maxSpeed="25" sigma="0.5" />

            <route id="W_N" edges="W2TL TL2N"/>
            <route id="W_E" edges="W2TL TL2E"/>
            <route id="W_S" edges="W2TL TL2S"/>
            <route id="N_W" edges="N2TL TL2W"/>
            <route id="N_E" edges="N2TL TL2E"/>
            <route id="N_S" edges="N2TL TL2S"/>
            <route id="E_W" edges="E2TL TL2W"/>
            <route id="E_N" edges="E2TL TL2N"/>
            <route id="E_S" edges="E2TL TL2S"/>
            <route id="S_W" edges="S2TL TL2W"/>
            <route id="S_N" edges="S2TL TL2N"/>
            <route id="S_E" edges="S2TL TL2E"/>
    <vehicle id="W_N_0" type="standard_car" route="W_N" depart="172.0" departLane="random" departSpeed="10" arrivalLane="0"> <stop lane="TL2N_0" endPos="750" duration="-12"/> </vehicle>
    <vehicle id="N_S_1" type="standard_car" route="N_S" depart="264.0" departLane="random" departSpeed="10" arrivalLane="3"> <stop lane="TL2S_3" endPos="750" duration="-13"/> </vehicle>
    <vehicle id="W_N_2" type="standard_car" route="W_N" depart="350.0" departLane="random" departSpeed="10" arrivalLane="2"> <stop lane="TL2N_2" endPos="750" duration="-14"/> </vehicle>
    <vehicle id="E_W_3" type="standard_car" route="E_W" depart="432.0" departLane="random" departSpeed="10" arrivalLane="0"> <stop lane="TL2W_0" endPos="750" duration="-15"/> </vehicle>
    <vehicle id="N_S_4" type="standard_car" route="N_S" depart="433.0" departLane="random" departSpeed="10" arrivalLane="3"> <stop lane="TL2S_3" endPos="750" duration="-15"/> </vehicle>
    <vehicle id="E_N_5" type="standard_car" route="E_N" depart="466.0" departLane="random" departSpeed="10" arrivalLane="2"> <stop lane="TL2N_2" endPos="750" duration="-15"/> </vehicle>
    <vehicle id="E_W_6" type="standard_car" route="E_W" depart="516.0" departLane="random" departSpeed="10" arrivalLane="1"> <stop lane="TL2W_1" endPos="750" duration="-16"/> </vehicle>
    <vehicle id="N_S_7" type="standard_car" route="N_S" depart="535.0" departLane="random" departSpeed="10" arrivalLane="1"> <stop lane="TL2S_1" endPos="750" duration="-16"/> </vehicle>
    <vehicle id="W_S_8" type="standard_car" route="W_S" depart="551.0" departLane="random" departSpeed="10" arrivalLane="2"> <stop lane="TL2S_2" endPos="750" duration="-16"/> </vehicle>
    <vehicle id="N_S_9" type="standard_car" route="N_S" depart="554.0" departLane="random" departSpeed="10" arrivalLane="3"> <stop lane="TL2S_3" endPos="750" duration="-16"/> </vehicle>
    <vehicle id="E_W_10" type="standard_car" route="E_W" depart="603.0" departLane="random" departSpeed="10" arrivalLane="0"> <stop lane="TL2W_0" endPos="750" duration="-17"/> </vehicle>
    <vehicle id="E_W_11" type="standard_car" route="E_W" depart="606.0" departLane="random" departSpeed="10" arrivalLane="0"> <stop lane="TL2W_0" endPos="750" duration="-17"/> </vehicle>
    <vehicle id="N_S_12" type="standard_car" route="N_S" depart="658.0" departLane="random" departSpeed="10" arrivalLane="0"> <stop lane="TL2S_0" endPos="750" duration="-17"/> </vehicle>
    <vehicle id="E_W_13" type="standard_car" route="E_W" depart="667.0" departLane="random" departSpeed="10" arrivalLane="0"> <stop lane="TL2W_0" endPos="750" duration="-17"/> </vehicle>
    <vehicle id="N_E_14" type="standard_car" route="N_E" depart="673.0" departLane="random" departSpeed="10" arrivalLane="3"> <stop lane="TL2E_3" endPos="750" duration="-17"/> </vehicle>
    <vehicle id="W_E_15" type="standard_car" route="W_E" depart="698.0" departLane="random" departSpeed="10" arrivalLane="0"> <stop lane="TL2E_0" endPos="750" duration="-18"/> </vehicle>
    <vehicle id="N_S_16" type="standard_car" route="N_S" depart="738.0" departLane="random" departSpeed="10" arrivalLane="1"> <stop lane="TL2S_1" endPos="750" duration="-18"/> </vehicle>
    <vehicle id="S_N_17" type="standard_car" route="S_N" depart="764.0" departLane="random" departSpeed="10" arrivalLane="1"> <stop lane="TL2N_1" endPos="750" duration="-18"/> </vehicle>
    <vehicle id="W_E_18" type="standard_car" route="W_E" depart="767.0" departLane="random" departSpeed="10" arrivalLane="1"> <stop lane="TL2E_1" endPos="750" duration="-18"/> </vehicle>
    <vehicle id="N_E_19" type="standard_car" route="N_E" depart="777.0" departLane="random" departSpeed="10" arrivalLane="0"> <stop lane="TL2E_0" endPos="750" duration="-19"/> </vehicle>
    <vehicle id="W_E_20" type="standard_car" route="W_E" depart="801.0" departLane="random" departSpeed="10" arrivalLane="0"> <stop lane="TL2E_0" endPos="750" duration="-19"/> </vehicle>
    <vehicle id="S_N_21" type="standard_car" route="S_N" depart="875.0" departLane="random" departSpeed="10" arrivalLane="2"> <stop lane="TL2N_2" endPos="750" duration="-20"/> </vehicle>
    <vehicle id="N_S_22" type="standard_car" route="N_S" depart="888.0" departLane="random" departSpeed="10" arrivalLane="3"> <stop lane="TL2S_3" endPos="750" duration="-20"/> </vehicle>
    <vehicle id="E_W_23" type="standard_car" route="E_W" depart="963.0" departLane="random" departSpeed="10" arrivalLane="1"> <stop lane="TL2W_1" endPos="750" duration="-20"/> </vehicle>
    <vehicle id="N_S_24" type="standard_car" route="N_S" depart="963.0" departLane="random" departSpeed="10" arrivalLane="1"> <stop lane="TL2S_1" endPos="750" duration="-20"/> </vehicle>
    <vehicle id="N_S_25" type="standard_car" route="N_S" depart="967.0" departLane="random" departSpeed="10" arrivalLane="2"> <stop lane="TL2S_2" endPos="750" duration="-20"/> </vehicle>
    <vehicle id="S_N_26" type="standard_car" route="S_N" depart="985.0" departLane="random" departSpeed="10" arrivalLane="1"> <stop lane="TL2N_1" endPos="750" duration="-21"/> </vehicle>
    <vehicle id="S_N_27" type="standard_car" route="S_N" depart="1027.0" departLane="random" departSpeed="10" arrivalLane="1"> <stop lane="TL2N_1" endPos="750" duration="-21"/> </vehicle>
    <vehicle id="E_W_28" type="standard_car" route="E_W" depart="1041.0" departLane="random" departSpeed="10" arrivalLane="1"> <stop lane="TL2W_1" endPos="750" duration="-21"/> </vehicle>
    <vehicle id="W_E_29" type="standard_car" route="W_E" depart="1078.0" departLane="random" departSpeed="10" arrivalLane="3"> <stop lane="TL2E_3" endPos="750" duration="-22"/> </vehicle>
    <vehicle id="W_E_30" type="standard_car" route="W_E" depart="1095.0" departLane="random" departSpeed="10" arrivalLane="0"> <stop lane="TL2E_0" endPos="750" duration="-22"/> </vehicle>
    <vehicle id="E_W_31" type="standard_car" route="E_W" depart="1107.0" departLane="random" departSpeed="10" arrivalLane="2"> <stop lane="TL2W_2" endPos="750" duration="-22"/> </vehicle>
    <vehicle id="N_S_32" type="standard_car" route="N_S" depart="1118.0" departLane="random" departSpeed="10" arrivalLane="2"> <stop lane="TL2S_2" endPos="750" duration="-22"/> </vehicle>
    <vehicle id="W_E_33" type="standard_car" route="W_E" depart="1125.0" departLane="random" departSpeed="10" arrivalLane="3"> <stop lane="TL2E_3" endPos="750" duration="-22"/> </vehicle>
    <vehicle id="E_W_34" type="standard_car" route="E_W" depart="1201.0" departLane="random" departSpeed="10" arrivalLane="0"> <stop lane="TL2W_0" endPos="750" duration="-23"/> </vehicle>
    <vehicle id="N_S_35" type="standard_car" route="N_S" depart="1222.0" departLane="random" departSpeed="10" arrivalLane="3"> <stop lane="TL2S_3" endPos="750" duration="-23"/> </vehicle>
    <vehicle id="W_E_36" type="standard_car" route="W_E" depart="1235.0" departLane="random" departSpeed="10" arrivalLane="2"> <stop lane="TL2E_2" endPos="750" duration="-23"/> </vehicle>
    <vehicle id="N_S_37" type="standard_car" route="N_S" depart="1246.0" departLane="random" departSpeed="10" arrivalLane="3"> <stop lane="TL2S_3" endPos="750" duration="-23"/> </vehicle>
    <vehicle id="E_W_38" type="standard_car" route="E_W" depart="1254.0" departLane="random" departSpeed="10" arrivalLane="3"> <stop lane="TL2W_3" endPos="750" duration="-23"/> </vehicle>
    <vehicle id="S_N_39" type="standard_car" route="S_N" depart="1284.0" departLane="random" departSpeed="10" arrivalLane="2"> <stop lane="TL2N_2" endPos="750" duration="-23"/> </vehicle>
    <vehicle id="S_N_40" type="standard_car" route="S_N" depart="1293.0" departLane="random" departSpeed="10" arrivalLane="0"> <stop lane="TL2N_0" endPos="750" duration="-23"/> </vehicle>
    <vehicle id="N_S_41" type="standard_car" route="N_S" depart="1294.0" departLane="random" departSpeed="10" arrivalLane="0"> <stop lane="TL2S_0" endPos="750" duration="-23"/> </vehicle>
    <vehicle id="S_N_42" type="standard_car" route="S_N" depart="1300.0" departLane="random" departSpeed="10" arrivalLane="2"> <stop lane="TL2N_2" endPos="750" duration="-23"/> </vehicle>
    <vehicle id="E_W_43" type="standard_car" route="E_W" depart="1312.0" departLane="random" departSpeed="10" arrivalLane="0"> <stop lane="TL2W_0" endPos="750" duration="-23"/> </vehicle>
    <vehicle id="N_S_44" type="standard_car" route="N_S" depart="1349.0" departLane="random" departSpeed="10" arrivalLane="3"> <stop lane="TL2S_3" endPos="750" duration="-24"/> </vehicle>
    <vehicle id="E_W_45" type="standard_car" route="E_W" depart="1355.0" departLane="random" departSpeed="10" arrivalLane="0"> <stop lane="TL2W_0" endPos="750" duration="-24"/> </vehicle>
    <vehicle id="S_N_46" type="standard_car" route="S_N" depart="1403.0" departLane="random" departSpeed="10" arrivalLane="1"> <stop lane="TL2N_1" endPos="750" duration="-24"/> </vehicle>
    <vehicle id="E_W_47" type="standard_car" route="E_W" depart="1403.0" departLane="random" departSpeed="10" arrivalLane="2"> <stop lane="TL2W_2" endPos="750" duration="-24"/> </vehicle>
    <vehicle id="N_E_48" type="standard_car" route="N_E" depart="1404.0" departLane="random" departSpeed="10" arrivalLane="1"> <stop lane="TL2E_1" endPos="750" duration="-24"/> </vehicle>
    <vehicle id="E_N_49" type="standard_car" route="E_N" depart="1406.0" departLane="random" departSpeed="10" arrivalLane="2"> <stop lane="TL2N_2" endPos="750" duration="-24"/> </vehicle>
    <vehicle id="E_S_50" type="standard_car" route="E_S" depart="1411.0" departLane="random" departSpeed="10" arrivalLane="3"> <stop lane="TL2S_3" endPos="750" duration="-24"/> </vehicle>
    <vehicle id="S_N_51" type="standard_car" route="S_N" depart="1418.0" departLane="random" departSpeed="10" arrivalLane="0"> <stop lane="TL2N_0" endPos="750" duration="-24"/> </vehicle>
    <vehicle id="W_N_52" type="standard_car" route="W_N" depart="1440.0" departLane="random" departSpeed="10" arrivalLane="1"> <stop lane="TL2N_1" endPos="750" duration="-24"/> </vehicle>
    <vehicle id="S_N_53" type="standard_car" route="S_N" depart="1442.0" departLane="random" departSpeed="10" arrivalLane="0"> <stop lane="TL2N_0" endPos="750" duration="-24"/> </vehicle>
    <vehicle id="N_S_54" type="standard_car" route="N_S" depart="1459.0" departLane="random" departSpeed="10" arrivalLane="1"> <stop lane="TL2S_1" endPos="750" duration="-24"/> </vehicle>
    <vehicle id="W_N_55" type="standard_car" route="W_N" depart="1463.0" departLane="random" departSpeed="10" arrivalLane="3"> <stop lane="TL2N_3" endPos="750" duration="-24"/> </vehicle>
    <vehicle id="N_S_56" type="standard_car" route="N_S" depart="1465.0" departLane="random" departSpeed="10" arrivalLane="1"> <stop lane="TL2S_1" endPos="750" duration="-24"/> </vehicle>
    <vehicle id="N_S_57" type="standard_car" route="N_S" depart="1465.0" departLane="random" departSpeed="10" arrivalLane="3"> <stop lane="TL2S_3" endPos="750" duration="-24"/> </vehicle>
    <vehicle id="W_E_58" type="standard_car" route="W_E" depart="1465.0" departLane="random" departSpeed="10" arrivalLane="0"> <stop lane="TL2E_0" endPos="750" duration="-24"/> </vehicle>
    <vehicle id="E_N_59" type="standard_car" route="E_N" depart="1489.0" departLane="random" departSpeed="10" arrivalLane="1"> <stop lane="TL2N_1" endPos="750" duration="-25"/> </vehicle>
    <vehicle id="N_E_60" type="standard_car" route="N_E" depart="1515.0" departLane="random" departSpeed="10" arrivalLane="1"> <stop lane="TL2E_1" endPos="750" duration="-25"/> </vehicle>
    <vehicle id="N_S_61" type="standard_car" route="N_S" depart="1539.0" departLane="random" departSpeed="10" arrivalLane="1"> <stop lane="TL2S_1" endPos="750" duration="-25"/> </vehicle>
    <vehicle id="S_N_62" type="standard_car" route="S_N" depart="1543.0" departLane="random" departSpeed="10" arrivalLane="0"> <stop lane="TL2N_0" endPos="750" duration="-25"/> </vehicle>
    <vehicle id="N_S_63" type="standard_car" route="N_S" depart="1560.0" departLane="random" departSpeed="10" arrivalLane="1"> <stop lane="TL2S_1" endPos="750" duration="-25"/> </vehicle>
    <vehicle id="E_W_64" type="standard_car" route="E_W" depart="1609.0" departLane="random" departSpeed="10" arrivalLane="2"> <stop lane="TL2W_2" endPos="750" duration="-25"/> </vehicle>
    <vehicle id="N_S_65" type="standard_car" route="N_S" depart="1616.0" departLane="random" departSpeed="10" arrivalLane="3"> <stop lane="TL2S_3" endPos="750" duration="-25"/> </vehicle>
    <vehicle id="S_E_66" type="standard_car" route="S_E" depart="1620.0" departLane="random" departSpeed="10" arrivalLane="0"> <stop lane="TL2E_0" endPos="750" duration="-25"/> </vehicle>
    <vehicle id="E_W_67" type="standard_car" route="E_W" depart="1625.0" departLane="random" departSpeed="10" arrivalLane="3"> <stop lane="TL2W_3" endPos="750" duration="-25"/> </vehicle>
    <vehicle id="W_E_68" type="standard_car" route="W_E" depart="1640.0" departLane="random" departSpeed="10" arrivalLane="2"> <stop lane="TL2E_2" endPos="750" duration="-25"/> </vehicle>
    <vehicle id="E_W_69" type="standard_car" route="E_W" depart="1643.0" departLane="random" departSpeed="10" arrivalLane="2"> <stop lane="TL2W_2" endPos="750" duration="-25"/> </vehicle>
    <vehicle id="E_W_70" type="standard_car" route="E_W" depart="1646.0" departLane="random" departSpeed="10" arrivalLane="1"> <stop lane="TL2W_1" endPos="750" duration="-25"/> </vehicle>
    <vehicle id="W_E_71" type="standard_car" route="W_E" depart="1649.0" departLane="random" departSpeed="10" arrivalLane="0"> <stop lane="TL2E_0" endPos="750" duration="-25"/> </vehicle>
    <vehicle id="W_E_72" type="standard_car" route="W_E" depart="1649.0" departLane="random" departSpeed="10" arrivalLane="0"> <stop lane="TL2E_0" endPos="750" duration="-25"/> </vehicle>
    <vehicle id="S_N_73" type="standard_car" route="S_N" depart="1674.0" departLane="random" departSpeed="10" arrivalLane="3"> <stop lane="TL2N_3" endPos="750" duration="-25"/> </vehicle>
    <vehicle id="W_S_74" type="standard_car" route="W_S" depart="1688.0" departLane="random" departSpeed="10" arrivalLane="1"> <stop lane="TL2S_1" endPos="750" duration="-26"/> </vehicle>
    <vehicle id="W_E_75" type="standard_car" route="W_E" depart="1688.0" departLane="random" departSpeed="10" arrivalLane="3"> <stop lane="TL2E_3" endPos="750" duration="-26"/> </vehicle>
    <vehicle id="N_S_76" type="standard_car" route="N_S" depart="1704.0" departLane="random" departSpeed="10" arrivalLane="2"> <stop lane="TL2S_2" endPos="750" duration="-26"/> </vehicle>
    <vehicle id="W_E_77" type="standard_car" route="W_E" depart="1719.0" departLane="random" departSpeed="10" arrivalLane="1"> <stop lane="TL2E_1" endPos="750" duration="-26"/> </vehicle>
    <vehicle id="W_E_78" type="standard_car" route="W_E" depart="1729.0" departLane="random" departSpeed="10" arrivalLane="3"> <stop lane="TL2E_3" endPos="750" duration="-26"/> </vehicle>
    <vehicle id="W_E_79" type="standard_car" route="W_E" depart="1743.0" departLane="random" departSpeed="10" arrivalLane="0"> <stop lane="TL2E_0" endPos="750" duration="-26"/> </vehicle>
    <vehicle id="E_W_80" type="standard_car" route="E_W" depart="1747.0" departLane="random" departSpeed="10" arrivalLane="2"> <stop lane="TL2W_2" endPos="750" duration="-26"/> </vehicle>
    <vehicle id="W_E_81" type="standard_car" route="W_E" depart="1748.0" departLane="random" departSpeed="10" arrivalLane="1"> <stop lane="TL2E_1" endPos="750" duration="-26"/> </vehicle>
    <vehicle id="S_N_82" type="standard_car" route="S_N" depart="1752.0" departLane="random" departSpeed="10" arrivalLane="1"> <stop lane="TL2N_1" endPos="750" duration="-26"/> </vehicle>
    <vehicle id="S_N_83" type="standard_car" route="S_N" depart="1760.0" departLane="random" departSpeed="10" arrivalLane="2"> <stop lane="TL2N_2" endPos="750" duration="-26"/> </vehicle>
    <vehicle id="S_N_84" type="standard_car" route="S_N" depart="1781.0" departLane="random" departSpeed="10" arrivalLane="2"> <stop lane="TL2N_2" endPos="750" duration="-26"/> </vehicle>
    <vehicle id="W_N_85" type="standard_car" route="W_N" depart="1784.0" departLane="random" departSpeed="10" arrivalLane="3"> <stop lane="TL2N_3" endPos="750" duration="-26"/> </vehicle>
    <vehicle id="S_N_86" type="standard_car" route="S_N" depart="1789.0" departLane="random" departSpeed="10" arrivalLane="2"> <stop lane="TL2N_2" endPos="750" duration="-26"/> </vehicle>
    <vehicle id="S_E_87" type="standard_car" route="S_E" depart="1797.0" departLane="random" departSpeed="10" arrivalLane="1"> <stop lane="TL2E_1" endPos="750" duration="-26"/> </vehicle>
    <vehicle id="W_E_88" type="standard_car" route="W_E" depart="1799.0" departLane="random" departSpeed="10" arrivalLane="2"> <stop lane="TL2E_2" endPos="750" duration="-26"/> </vehicle>
    <vehicle id="W_E_89" type="standard_car" route="W_E" depart="1833.0" departLane="random" departSpeed="10" arrivalLane="3"> <stop lane="TL2E_3" endPos="750" duration="-26"/> </vehicle>
    <vehicle id="W_N_90" type="standard_car" route="W_N" depart="1838.0" departLane="random" departSpeed="10" arrivalLane="2"> <stop lane="TL2N_2" endPos="750" duration="-26"/> </vehicle>
    <vehicle id="W_E_91" type="standard_car" route="W_E" depart="1838.0" departLane="random" departSpeed="10" arrivalLane="3"> <stop lane="TL2E_3" endPos="750" duration="-26"/> </vehicle>
    <vehicle id="N_W_92" type="standard_car" route="N_W" depart="1843.0" departLane="random" departSpeed="10" arrivalLane="3"> <stop lane="TL2W_3" endPos="750" duration="-26"/> </vehicle>
    <vehicle id="S_E_93" type="standard_car" route="S_E" depart="1852.0" departLane="random" departSpeed="10" arrivalLane="1"> <stop lane="TL2E_1" endPos="750" duration="-26"/> </vehicle>
    <vehicle id="N_S_94" type="standard_car" route="N_S" depart="1852.0" departLane="random" departSpeed="10" arrivalLane="1"> <stop lane="TL2S_1" endPos="750" duration="-26"/> </vehicle>
    <vehicle id="S_E_95" type="standard_car" route="S_E" depart="1871.0" departLane="random" departSpeed="10" arrivalLane="0"> <stop lane="TL2E_0" endPos="750" duration="-26"/> </vehicle>
    <vehicle id="E_W_96" type="standard_car" route="E_W" depart="1883.0" departLane="random" departSpeed="10" arrivalLane="0"> <stop lane="TL2W_0" endPos="750" duration="-26"/> </vehicle>
    <vehicle id="E_W_97" type="standard_car" route="E_W" depart="1888.0" departLane="random" departSpeed="10" arrivalLane="0"> <stop lane="TL2W_0" endPos="750" duration="-26"/> </vehicle>
    <vehicle id="S_W_98" type="standard_car" route="S_W" depart="1894.0" departLane="random" departSpeed="10" arrivalLane="3"> <stop lane="TL2W_3" endPos="750" duration="-26"/> </vehicle>
    <vehicle id="W_E_99" type="standard_car" route="W_E" depart="1897.0" departLane="random" departSpeed="10" arrivalLane="2"> <stop lane="TL2E_2" endPos="750" duration="-26"/> </vehicle>
    <vehicle id="E_W_100" type="standard_car" route="E_W" depart="1899.0" departLane="random" departSpeed="10" arrivalLane="3"> <stop lane="TL2W_3" endPos="750" duration="-26"/> </vehicle>
    <vehicle id="W_E_101" type="standard_car" route="W_E" depart="1909.0" departLane="random" departSpeed="10" arrivalLane="0"> <stop lane="TL2E_0" endPos="750" duration="-26"/> </vehicle>
    <vehicle id="E_W_102" type="standard_car" route="E_W" depart="1910.0" departLane="random" departSpeed="10" arrivalLane="1"> <stop lane="TL2W_1" endPos="750" duration="-26"/> </vehicle>
    <vehicle id="S_N_103" type="standard_car" route="S_N" depart="1924.0" departLane="random" departSpeed="10" arrivalLane="1"> <stop lane="TL2N_1" endPos="750" duration="-26"/> </vehicle>
    <vehicle id="W_N_104" type="standard_car" route="W_N" depart="1933.0" departLane="random" departSpeed="10" arrivalLane="0"> <stop lane="TL2N_0" endPos="750" duration="-26"/> </vehicle>
    <vehicle id="E_N_105" type="standard_car" route="E_N" depart="1937.0" departLane="random" departSpeed="10" arrivalLane="1"> <stop lane="TL2N_1" endPos="750" duration="-26"/> </vehicle>
    <vehicle id="N_S_106" type="standard_car" route="N_S" depart="1941.0" departLane="random" departSpeed="10" arrivalLane="1"> <stop lane="TL2S_1" endPos="750" duration="-26"/> </vehicle>
    <vehicle id="S_N_107" type="standard_car" route="S_N" depart="1952.0" departLane="random" departSpeed="10" arrivalLane="0"> <stop lane="TL2N_0" endPos="750" duration="-26"/> </vehicle>
    <vehicle id="S_W_108" type="standard_car" route="S_W" depart="1965.0" departLane="random" departSpeed="10" arrivalLane="3"> <stop lane="TL2W_3" endPos="750" duration="-26"/> </vehicle>
    <vehicle id="N_S_109" type="standard_car" route="N_S" depart="1966.0" departLane="random" departSpeed="10" arrivalLane="3"> <stop lane="TL2S_3" endPos="750" duration="-26"/> </vehicle>
    <vehicle id="S_N_110" type="standard_car" route="S_N" depart="1968.0" departLane="random" departSpeed="10" arrivalLane="1"> <stop lane="TL2N_1" endPos="750" duration="-26"/> </vehicle>
    <vehicle id="N_S_111" type="standard_car" route="N_S" depart="1970.0" departLane="random" departSpeed="10" arrivalLane="3"> <stop lane="TL2S_3" endPos="750" duration="-26"/> </vehicle>
    <vehicle id="S_N_112" type="standard_car" route="S_N" depart="1971.0" departLane="random" departSpeed="10" arrivalLane="1"> <stop lane="TL2N_1" endPos="750" duration="-26"/> </vehicle>
    <vehicle id="E_W_113" type="standard_car" route="E_W" depart="1980.0" departLane="random" departSpeed="10" arrivalLane="0"> <stop lane="TL2W_0" endPos="750" duration="-26"/> </vehicle>
    <vehicle id="E_W_114" type="standard_car" route="E_W" depart="1980.0" departLane="random" departSpeed="10" arrivalLane="1"> <stop lane="TL2W_1" endPos="750" duration="-26"/> </vehicle>
    <vehicle id="N_S_115" type="standard_car" route="N_S" depart="2002.0" departLane="random" departSpeed="10" arrivalLane="2"> <stop lane="TL2S_2" endPos="750" duration="-26"/> </vehicle>
    <vehicle id="N_S_116" type="standard_car" route="N_S" depart="2024.0" departLane="random" departSpeed="10" arrivalLane="1"> <stop lane="TL2S_1" endPos="750" duration="-26"/> </vehicle>
    <vehicle id="E_S_117" type="standard_car" route="E_S" depart="2027.0" departLane="random" departSpeed="10" arrivalLane="0"> <stop lane="TL2S_0" endPos="750" duration="-26"/> </vehicle>
    <vehicle id="S_N_118" type="standard_car" route="S_N" depart="2034.0" departLane="random" departSpeed="10" arrivalLane="3"> <stop lane="TL2N_3" endPos="750" duration="-26"/> </vehicle>
    <vehicle id="N_S_119" type="standard_car" route="N_S" depart="2041.0" departLane="random" departSpeed="10" arrivalLane="3"> <stop lane="TL2S_3" endPos="750" duration="-26"/> </vehicle>
    <vehicle id="W_E_120" type="standard_car" route="W_E" depart="2042.0" departLane="random" departSpeed="10" arrivalLane="1"> <stop lane="TL2E_1" endPos="750" duration="-26"/> </vehicle>
    <vehicle id="N_E_121" type="standard_car" route="N_E" depart="2052.0" departLane="random" departSpeed="10" arrivalLane="3"> <stop lane="TL2E_3" endPos="750" duration="-26"/> </vehicle>
    <vehicle id="S_N_122" type="standard_car" route="S_N" depart="2067.0" departLane="random" departSpeed="10" arrivalLane="1"> <stop lane="TL2N_1" endPos="750" duration="-26"/> </vehicle>
    <vehicle id="N_S_123" type="standard_car" route="N_S" depart="2082.0" departLane="random" departSpeed="10" arrivalLane="2"> <stop lane="TL2S_2" endPos="750" duration="-26"/> </vehicle>
    <vehicle id="E_W_124" type="standard_car" route="E_W" depart="2089.0" departLane="random" departSpeed="10" arrivalLane="2"> <stop lane="TL2W_2" endPos="750" duration="-26"/> </vehicle>
    <vehicle id="E_W_125" type="standard_car" route="E_W" depart="2092.0" departLane="random" departSpeed="10" arrivalLane="1"> <stop lane="TL2W_1" endPos="750" duration="-26"/> </vehicle>
    <vehicle id="N_W_126" type="standard_car" route="N_W" depart="2106.0" departLane="random" departSpeed="10" arrivalLane="1"> <stop lane="TL2W_1" endPos="750" duration="-26"/> </vehicle>
    <vehicle id="E_S_127" type="standard_car" route="E_S" depart="2109.0" departLane="random" departSpeed="10" arrivalLane="1"> <stop lane="TL2S_1" endPos="750" duration="-26"/> </vehicle>
    <vehicle id="N_S_128" type="standard_car" route="N_S" depart="2116.0" departLane="random" departSpeed="10" arrivalLane="2"> <stop lane="TL2S_2" endPos="750" duration="-26"/> </vehicle>
    <vehicle id="S_N_129" type="standard_car" route="S_N" depart="2124.0" departLane="random" departSpeed="10" arrivalLane="1"> <stop lane="TL2N_1" endPos="750" duration="-26"/> </vehicle>
    <vehicle id="N_S_130" type="standard_car" route="N_S" depart="2128.0" departLane="random" departSpeed="10" arrivalLane="3"> <stop lane="TL2S_3" endPos="750" duration="-26"/> </vehicle>
    <vehicle id="S_N_131" type="standard_car" route="S_N" depart="2146.0" departLane="random" departSpeed="10" arrivalLane="3"> <stop lane="TL2N_3" endPos="750" duration="-26"/> </vehicle>
    <vehicle id="W_N_132" type="standard_car" route="W_N" depart="2151.0" departLane="random" departSpeed="10" arrivalLane="3"> <stop lane="TL2N_3" endPos="750" duration="-26"/> </vehicle>
    <vehicle id="N_S_133" type="standard_car" route="N_S" depart="2161.0" departLane="random" departSpeed="10" arrivalLane="2"> <stop lane="TL2S_2" endPos="750" duration="-26"/> </vehicle>
    <vehicle id="S_E_134" type="standard_car" route="S_E" depart="2174.0" departLane="random" departSpeed="10" arrivalLane="1"> <stop lane="TL2E_1" endPos="750" duration="-26"/> </vehicle>
    <vehicle id="S_N_135" type="standard_car" route="S_N" depart="2181.0" departLane="random" departSpeed="10" arrivalLane="2"> <stop lane="TL2N_2" endPos="750" duration="-26"/> </vehicle>
    <vehicle id="S_E_136" type="standard_car" route="S_E" depart="2189.0" departLane="random" departSpeed="10" arrivalLane="3"> <stop lane="TL2E_3" endPos="750" duration="-26"/> </vehicle>
    <vehicle id="E_W_137" type="standard_car" route="E_W" depart="2193.0" departLane="random" departSpeed="10" arrivalLane="3"> <stop lane="TL2W_3" endPos="750" duration="-26"/> </vehicle>
    <vehicle id="E_S_138" type="standard_car" route="E_S" depart="2203.0" departLane="random" departSpeed="10" arrivalLane="3"> <stop lane="TL2S_3" endPos="750" duration="-26"/> </vehicle>
    <vehicle id="W_E_139" type="standard_car" route="W_E" depart="2215.0" departLane="random" departSpeed="10" arrivalLane="2"> <stop lane="TL2E_2" endPos="750" duration="-26"/> </vehicle>
    <vehicle id="E_W_140" type="standard_car" route="E_W" depart="2229.0" departLane="random" departSpeed="10" arrivalLane="3"> <stop lane="TL2W_3" endPos="750" duration="-26"/> </vehicle>
    <vehicle id="E_W_141" type="standard_car" route="E_W" depart="2238.0" departLane="random" departSpeed="10" arrivalLane="0"> <stop lane="TL2W_0" endPos="750" duration="-26"/> </vehicle>
    <vehicle id="N_W_142" type="standard_car" route="N_W" depart="2244.0" departLane="random" departSpeed="10" arrivalLane="1"> <stop lane="TL2W_1" endPos="750" duration="-26"/> </vehicle>
    <vehicle id="N_S_143" type="standard_car" route="N_S" depart="2268.0" departLane="random" departSpeed="10" arrivalLane="3"> <stop lane="TL2S_3" endPos="750" duration="-26"/> </vehicle>
    <vehicle id="N_S_144" type="standard_car" route="N_S" depart="2268.0" departLane="random" departSpeed="10" arrivalLane="3"> <stop lane="TL2S_3" endPos="750" duration="-26"/> </vehicle>
    <vehicle id="S_E_145" type="standard_car" route="S_E" depart="2276.0" departLane="random" departSpeed="10" arrivalLane="1"> <stop lane="TL2E_1" endPos="750" duration="-26"/> </vehicle>
    <vehicle id="S_N_146" type="standard_car" route="S_N" depart="2285.0" departLane="random" departSpeed="10" arrivalLane="1"> <stop lane="TL2N_1" endPos="750" duration="-26"/> </vehicle>
    <vehicle id="E_W_147" type="standard_car" route="E_W" depart="2294.0" departLane="random" departSpeed="10" arrivalLane="3"> <stop lane="TL2W_3" endPos="750" duration="-26"/> </vehicle>
    <vehicle id="E_W_148" type="standard_car" route="E_W" depart="2294.0" departLane="random" departSpeed="10" arrivalLane="0"> <stop lane="TL2W_0" endPos="750" duration="-26"/> </vehicle>
    <vehicle id="S_N_149" type="standard_car" route="S_N" depart="2296.0" departLane="random" departSpeed="10" arrivalLane="2"> <stop lane="TL2N_2" endPos="750" duration="-26"/> </vehicle>
    <vehicle id="W_S_150" type="standard_car" route="W_S" depart="2301.0" departLane="random" departSpeed="10" arrivalLane="1"> <stop lane="TL2S_1" endPos="750" duration="-26"/> </vehicle>
    <vehicle id="N_S_151" type="standard_car" route="N_S" depart="2326.0" departLane="random" departSpeed="10" arrivalLane="0"> <stop lane="TL2S_0" endPos="750" duration="-25"/> </vehicle>
    <vehicle id="E_S_152" type="standard_car" route="E_S" depart="2341.0" departLane="random" departSpeed="10" arrivalLane="3"> <stop lane="TL2S_3" endPos="750" duration="-25"/> </vehicle>
    <vehicle id="E_S_153" type="standard_car" route="E_S" depart="2358.0" departLane="random" departSpeed="10" arrivalLane="1"> <stop lane="TL2S_1" endPos="750" duration="-25"/> </vehicle>
    <vehicle id="E_W_154" type="standard_car" route="E_W" depart="2362.0" departLane="random" departSpeed="10" arrivalLane="1"> <stop lane="TL2W_1" endPos="750" duration="-25"/> </vehicle>