<routes>
            <vType accel="1.0" decel="4.5" id="standard_car" length="5.0" minGap="2.5" maxSpeed="25" sigma="0.5" />

            <route id="W_N" edges="W2TL TL2N"/>
            <route id="W_E" edges="W2TL TL2E"/>
            <route id="W_S" edges="W2TL TL2S"/>
            <route id="N_W" edges="N2TL TL2W"/>
            <route id="N_E" edges="N2TL TL2E"/>
            <route id="N_S" edges="N2TL TL2S"/>
            <route id="E_W" edges="E2TL TL2W"/>
            <route id="E_N" edges="E2TL TL2N"/>
            <route id="E_S" edges="E2TL TL2S"/>
            <route id="S_W" edges="S2TL TL2W"/>
            <route id="S_N" edges="S2TL TL2N"/>
            <route id="S_E" edges="S2TL TL2E"/>
    <vehicle id="S_N_0" type="standard_car" route="S_N" depart="126.0" departLane="random" departSpeed="10" arrivalLane="3"> <stop lane="TL2N_3" endPos="750" duration="-12"/> </vehicle>
    <vehicle id="W_E_1" type="standard_car" route="W_E" depart="156.0" departLane="random" departSpeed="10" arrivalLane="2"> <stop lane="TL2E_2" endPos="750" duration="-12"/> </vehicle>
    <vehicle id="S_E_2" type="standard_car" route="S_E" depart="244.0" departLane="random" departSpeed="10" arrivalLane="0"> <stop lane="TL2E_0" endPos="750" duration="-13"/> </vehicle>
    <vehicle id="W_E_3" type="standard_car" route="W_E" depart="275.0" departLane="random" departSpeed="10" arrivalLane="0"> <stop lane="TL2E_0" endPos="750" duration="-13"/> </vehicle>
    <vehicle id="S_N_4" type="standard_car" route="S_N" depart="291.0" departLane="random" departSpeed="10" arrivalLane="0"> <stop lane="TL2N_0" endPos="750" duration="-13"/> </vehicle>
    <vehicle id="N_W_5" type="standard_car" route="N_W" depart="291.0" departLane="random" departSpeed="10" arrivalLane="2"> <stop lane="TL2W_2" endPos="750" duration="-13"/> </vehicle>
    <vehicle id="E_N_6" type="standard_car" route="E_N" depart="300.0" departLane="random" departSpeed="10" arrivalLane="3"> <stop lane="TL2N_3" endPos="750" duration="-13"/> </vehicle>
    <vehicle id="N_S_7" type="standard_car" route="N_S" depart="301.0" departLane="random" departSpeed="10" arrivalLane="3"> <stop lane="TL2S_3" endPos="750" duration="-14"/> </vehicle>
    <vehicle id="W_S_8" type="standard_car" route="W_S" depart="320.0" departLane="random" departSpeed="10" arrivalLane="0"> <stop lane="TL2S_0" endPos="750" duration="-14"/> </vehicle>
    <vehicle id="W_E_9" type="standard_car" route="W_E" depart="332.0" departLane="random" departSpeed="10" arrivalLane="3"> <stop lane="TL2E_3" endPos="750" duration="-14"/> </vehicle>
    <vehicle id="W_E_10" type="standard_car" route="W_E" depart="351.0" departLane="random" departSpeed="10" arrivalLane="1"> <stop lane="TL2E_1" endPos="750" duration="-14"/> </vehicle>
    <vehicle id="E_W_11" type="standard_car" route="E_W" depart="358.0" departLane="random" departSpeed="10" arrivalLane="1"> <stop lane="TL2W_1" endPos="750" duration="-14"/> </vehicle>
    <vehicle id="W_E_12" type="standard_car" route="W_E" depart="363.0" departLane="random" departSpeed="10" arrivalLane="2"> <stop lane="TL2E_2" endPos="750" duration="-14"/> </vehicle>
    <vehicle id="S_N_13" type="standard_car" route="S_N" depart="364.0" departLane="random" departSpeed="10" arrivalLane="0"> <stop lane="TL2N_0" endPos="750" duration="-14"/> </vehicle>
    <vehicle id="S_W_14" type="standard_car" route="S_W" depart="375.0" departLane="random" departSpeed="10" arrivalLane="3"> <stop lane="TL2W_3" endPos="750" duration="-14"/> </vehicle>
    <vehicle id="N_W_15" type="standard_car" route="N_W" depart="376.0" departLane="random" departSpeed="10" arrivalLane="2"> <stop lane="TL2W_2" endPos="750" duration="-14"/> </vehicle>
    <vehicle id="N_S_16" type="standard_car" route="N_S" depart="388.0" departLane="random" departSpeed="10" arrivalLane="3"> <stop lane="TL2S_3" endPos="750" duration="-14"/> </vehicle>
    <vehicle id="W_N_17" type="standard_car" route="W_N" depart="393.0" departLane="random" departSpeed="10" arrivalLane="0"> <stop lane="TL2N_0" endPos="750" duration="-14"/> </vehicle>
    <vehicle id="S_N_18" type="standard_car" route="S_N" depart="398.0" departLane="random" departSpeed="10" arrivalLane="1"> <stop lane="TL2N_1" endPos="750" duration="-15"/> </vehicle>
    <vehicle id="W_S_19" type="standard_car" route="W_S" depart="400.0" departLane="random" departSpeed="10" arrivalLane="0"> <stop lane="TL2S_0" endPos="750" duration="-15"/> </vehicle>
    <vehicle id="S_N_20" type="standard_car" route="S_N" depart="417.0" departLane="random" departSpeed="10" arrivalLane="2"> <stop lane="TL2N_2" endPos="750" duration="-15"/> </vehicle>
    <vehicle id="W_E_21" type="standard_car" route="W_E" depart="419.0" departLane="random" departSpeed="10" arrivalLane="2"> <stop lane="TL2E_2" endPos="750" duration="-15"/> </vehicle>
    <vehicle id="W_S_22" type="standard_car" route="W_S" depart="431.0" departLane="random" departSpeed="10" arrivalLane="3"> <stop lane="TL2S_3" endPos="750" duration="-15"/> </vehicle>
    <vehicle id="S_N_23" type="standard_car" route="S_N" depart="450.0" departLane="random" departSpeed="10" arrivalLane="2"> <stop lane="TL2N_2" endPos="750" duration="-15"/> </vehicle>
    <vehicle id="E_W_24" type="standard_car" route="E_W" depart="459.0" departLane="random" departSpeed="10" arrivalLane="0"> <stop lane="TL2W_0" endPos="750" duration="-15"/> </vehicle>
    <vehicle id="N_S_25" type="standard_car" route="N_S" depart="466.0" departLane="random" departSpeed="10" arrivalLane="2"> <stop lane="TL2S_2" endPos="750" duration="-15"/> </vehicle>
    <vehicle id="N_E_26" type="standard_car" route="N_E" depart="469.0" departLane="random" departSpeed="10" arrivalLane="3"> <stop lane="TL2E_3" endPos="750" duration="-15"/> </vehicle>
    <vehicle id="N_S_27" type="standard_car" route="N_S" depart="477.0" departLane="random" departSpeed="10" arrivalLane="3"> <stop lane="TL2S_3" endPos="750" duration="-15"/> </vehicle>
    <vehicle id="E_W_28" type="standard_car" route="E_W" depart="479.0" departLane="random" departSpeed="10" arrivalLane="3"> <stop lane="TL2W_3" endPos="750" duration="-15"/> </vehicle>
    <vehicle id="E_N_29" type="standard_car" route="E_N" depart="484.0" departLane="random" departSpeed="10" arrivalLane="0"> <stop lane="TL2N_0" endPos="750" duration="-15"/> </vehicle>
    <vehicle id="E_W_30" type="standard_car" route="E_W" depart="492.0" departLane="random" departSpeed="10" arrivalLane="1"> <stop lane="TL2W_1" endPos="750" duration="-16"/> </vehicle>
    <vehicle id="S_N_31" type="standard_car" route="S_N" depart="493.0" departLane="random" departSpeed="10" arrivalLane="3"> <stop lane="TL2N_3" endPos="750" duration="-16"/> </vehicle>
    <vehicle id="N_S_32" type="standard_car" route="N_S" depart="496.0" departLane="random" departSpeed="10" arrivalLane="2"> <stop lane="TL2S_2" endPos="750" duration="-16"/> </vehicle>
    <vehicle id="W_E_33" type="standard_car" route="W_E" depart="500.0" departLane="random" departSpeed="10" arrivalLane="2"> <stop lane="TL2E_2" endPos="750" duration="-16"/> </vehicle>
    <vehicle id="S_N_34" type="standard_car" route="S_N" depart="530.0" departLane="random" departSpeed="10" arrivalLane="1"> <stop lane="TL2N_1" endPos="750" duration="-16"/> </vehicle>
    <vehicle id="E_W_35" type="standard_car" route="E_W" depart="533.0" departLane="random" departSpeed="10" arrivalLane="3"> <stop lane="TL2W_3" endPos="750" duration="-16"/> </vehicle>
    <vehicle id="E_W_36" type="standard_car" route="E_W" depart="535.0" departLane="random" departSpeed="10" arrivalLane="1"> <stop lane="TL2W_1" endPos="750" duration="-16"/> </vehicle>
    <vehicle id="S_N_37" type="standard_car" route="S_N" depart="537.0" departLane="random" departSpeed="10" arrivalLane="2"> <stop lane="TL2N_2" endPos="750" duration="-16"/> </vehicle>
    <vehicle id="W_E_38" type="standard_car" route="W_E" depart="545.0" departLane="random" departSpeed="10" arrivalLane="0"> <stop lane="TL2E_0" endPos="750" duration="-16"/> </vehicle>
    <vehicle id="S_E_39" type="standard_car" route="S_E" depart="555.0" departLane="random" departSpeed="10" arrivalLane="1"> <stop lane="TL2E_1" endPos="750" duration="-16"/> </vehicle>
    <vehicle id="E_W_40" type="standard_car" route="E_W" depart="561.0" departLane="random" departSpeed="10" arrivalLane="1"> <stop lane="TL2W_1" endPos="750" duration="-16"/> </vehicle>
    <vehicle id="S_E_41" type="standard_car" route="S_E" depart="561.0" departLane="random" departSpeed="10" arrivalLane="0"> <stop lane="TL2E_0" endPos="750" duration="-16"/> </vehicle>
    <vehicle id="S_N_42" type="standard_car" route="S_N" depart="562.0" departLane="random" departSpeed="10" arrivalLane="3"> <stop lane="TL2N_3" endPos="750" duration="-16"/> </vehicle>
    <vehicle id="W_E_43" type="standard_car" route="W_E" depart="565.0" departLane="random" departSpeed="10" arrivalLane="3"> <stop lane="TL2E_3" endPos="750" duration="-16"/> </vehicle>
    <vehicle id="S_N_44" type="standard_car" route="S_N" depart="569.0" departLane="random" departSpeed="10" arrivalLane="3"> <stop lane="TL2N_3" endPos="750" duration="-16"/> </vehicle>
    <vehicle id="S_N_45" type="standard_car" route="S_N" depart="577.0" departLane="random" departSpeed="10" arrivalLane="1"> <stop lane="TL2N_1" endPos="750" duration="-16"/> </vehicle>
    <vehicle id="S_N_46" type="standard_car" route="S_N" depart="595.0" departLane="random" departSpeed="10" arrivalLane="2"> <stop lane="TL2N_2" endPos="750" duration="-17"/> </vehicle>
    <vehicle id="E_W_47" type="standard_car" route="E_W" depart="601.0" departLane="random" departSpeed="10" arrivalLane="0"> <stop lane="TL2W_0" endPos="750" duration="-17"/> </vehicle>
    <vehicle id="S_N_48" type="standard_car" route="S_N" depart="604.0" departLane="random" departSpeed="10" arrivalLane="2"> <stop lane="TL2N_2" endPos="750" duration="-17"/> </vehicle>
    <vehicle id="S_W_49" type="standard_car" route="S_W" depart="610.0" departLane="random" departSpeed="10" arrivalLane="3"> <stop lane="TL2W_3" endPos="750" duration="-17"/> </vehicle>
    <vehicle id="N_S_50" type="standard_car" route="N_S" depart="619.0" departLane="random" departSpeed="10" arrivalLane="3"> <stop lane="TL2S_3" endPos="750" duration="-17"/> </vehicle>
    <vehicle id="N_W_51" type="standard_car" route="N_W" depart="621.0" departLane="random" departSpeed="10" arrivalLane="0"> <stop lane="TL2W_0" endPos="750" duration="-17"/> </vehicle>
    <vehicle id="W_E_52" type="standard_car" route="W_E" depart="634.0" departLane="random" departSpeed="10" arrivalLane="3"> <stop lane="TL2E_3" endPos="750" duration="-17"/> </vehicle>
    <vehicle id="S_W_53" type="standard_car" route="S_W" depart="643.0" departLane="random" departSpeed="10" arrivalLane="1"> <stop lane="TL2W_1" endPos="750" duration="-17"/> </vehicle>
    <vehicle id="W_E_54" type="standard_car" route="W_E" depart="644.0" departLane="random" departSpeed="10" arrivalLane="0"> <stop lane="TL2E_0" endPos="750" duration="-17"/> </vehicle>
    <vehicle id="W_E_55" type="standard_car" route="W_E" depart="645.0" departLane="random" departSpeed="10" arrivalLane="3"> <stop lane="TL2E_3" endPos="750" duration="-17"/> </vehicle>
    <vehicle id="W_E_56" type="standard_car" route="W_E" depart="664.0" departLane="random" departSpeed="10" arrivalLane="2"> <stop lane="TL2E_2" endPos="750" duration="-17"/> </vehicle>
    <vehicle id="E_W_57" type="standard_car" route="E_W" depart="664.0" departLane="random" departSpeed="10" arrivalLane="2"> <stop lane="TL2W_2" endPos="750" duration="-17"/> </vehicle>
    <vehicle id="W_E_58" type="standard_car" route="W_E" depart="666.0" departLane="random" departSpeed="10" arrivalLane="1"> <stop lane="TL2E_1" endPos="750" duration="-17"/> </vehicle>
    <vehicle id="E_W_59" type="standard_car" route="E_W" depart="669.0" departLane="random" departSpeed="10" arrivalLane="3"> <stop lane="TL2W_3" endPos="750" duration="-17"/> </vehicle>
    <vehicle id="W_E_60" type="standard_car" route="W_E" depart="671.0" departLane="random" departSpeed="10" arrivalLane="3"> <stop lane="TL2E_3" endPos="750" duration="-17"/> </vehicle>
    <vehicle id="E_W_61" type="standard_car" route="E_W" depart="672.0" departLane="random" departSpeed="10" arrivalLane="3"> <stop lane="TL2W_3" endPos="750" duration="-17"/> </vehicle>
    <vehicle id="N_S_62" type="standard_car" route="N_S" depart="688.0" departLane="random" departSpeed="10" arrivalLane="2"> <stop lane="TL2S_2" endPos="750" duration="-18"/> </vehicle>
    <vehicle id="N_S_63" type="standard_car" route="N_S" depart="690.0" departLane="random" departSpeed="10" arrivalLane="3"> <stop lane="TL2S_3" endPos="750" duration="-18"/> </vehicle>
    <vehicle id="W_S_64" type="standard_car" route="W_S" depart="692.0" departLane="random" departSpeed="10" arrivalLane="1"> <stop lane="TL2S_1" endPos="750" duration="-18"/> </vehicle>
    <vehicle id="N_S_65" type="standard_car" route="N_S" depart="696.0" departLane="random" departSpeed="10" arrivalLane="0"> <stop lane="TL2S_0" endPos="750" duration="-18"/> </vehicle>
    <vehicle id="S_N_66" type="standard_car" route="S_N" depart="698.0" departLane="random" departSpeed="10" arrivalLane="2"> <stop lane="TL2N_2" endPos="750" duration="-18"/> </vehicle>
    <vehicle id="N_S_67" type="standard_car" route="N_S" depart="702.0" departLane="random" departSpeed="10" arrivalLane="1"> <stop lane="TL2S_1" endPos="750" duration="-18"/> </vehicle>
    <vehicle id="S_N_68" type="standard_car" route="S_N" depart="704.0" departLane="random" departSpeed="10" arrivalLane="2"> <stop lane="TL2N_2" endPos="750" duration="-18"/> </vehicle>
    <vehicle id="S_N_69" type="standard_car" route="S_N" depart="707.0" departLane="random" departSpeed="10" arrivalLane="1"> <stop lane="TL2N_1" endPos="750" duration="-18"/> </vehicle>
    <vehicle id="E_N_70" type="standard_car" route="E_N" depart="715.0" departLane="random" departSpeed="10" arrivalLane="0"> <stop lane="TL2N_0" endPos="750" duration="-18"/> </vehicle>
    <vehicle id="S_W_71" type="standard_car" route="S_W" depart="724.0" departLane="random" departSpeed="10" arrivalLane="3"> <stop lane="TL2W_3" endPos="750" duration="-18"/> </vehicle>
    <vehicle id="S_W_72" type="standard_car" route="S_W" depart="739.0" departLane="random" departSpeed="10" arrivalLane="3"> <stop lane="TL2W_3" endPos="750" duration="-18"/> </vehicle>
    <vehicle id="S_N_73" type="standard_car" route="S_N" depart="754.0" departLane="random" departSpeed="10" arrivalLane="2"> <stop lane="TL2N_2" endPos="750" duration="-18"/> </vehicle>
    <vehicle id="W_N_74" type="standard_car" route="W_N" depart="755.0" departLane="random" departSpeed="10" arrivalLane="3"> <stop lane="TL2N_3" endPos="750" duration="-18"/> </vehicle>
    <vehicle id="N_S_75" type="standard_car" route="N_S" depart="756.0" departLane="random" departSpeed="10" arrivalLane="0"> <stop lane="TL2S_0" endPos="750" duration="-18"/> </vehicle>
    <vehicle id="S_N_76" type="standard_car" route="S_N" depart="782.0" departLane="random" departSpeed="10" arrivalLane="2"> <stop lane="TL2N_2" endPos="750" duration="-19"/> </vehicle>
    <vehicle id="W_E_77" type="standard_car" route="W_E" depart="788.0" departLane="random" departSpeed="10" arrivalLane="3"> <stop lane="TL2E_3" endPos="750" duration="-19"/> </vehicle>
    <vehicle id="W_S_78" type="standard_car" route="W_S" depart="792.0" departLane="random" departSpeed="10" arrivalLane="1"> <stop lane="TL2S_1" endPos="750" duration="-19"/> </vehicle>
    <vehicle id="E_S_79" type="standard_car" route="E_S" depart="796.0" departLane="random" departSpeed="10" arrivalLane="0"> <stop lane="TL2S_0" endPos="750" duration="-19"/> </vehicle>
    <vehicle id="S_W_80" type="standard_car" route="S_W" depart="814.0" departLane="random" departSpeed="10" arrivalLane="0"> <stop lane="TL2W_0" endPos="750" duration="-19"/> </vehicle>
    <vehicle id="W_E_81" type="standard_car" route="W_E" depart="828.0" departLane="random" departSpeed="10" arrivalLane="1"> <stop lane="TL2E_1" endPos="750" duration="-19"/> </vehicle>
    <vehicle id="W_E_82" type="standard_car" route="W_E" depart="833.0" departLane="random" departSpeed="10" arrivalLane="2"> <stop lane="TL2E_2" endPos="750" duration="-19"/> </vehicle>
    <vehicle id="S_N_83" type="standard_car" route="S_N" depart="839.0" departLane="random" departSpeed="10" arrivalLane="3"> <stop lane="TL2N_3" endPos="750" duration="-19"/> </vehicle>
    <vehicle id="S_W_84" type="standard_car" route="S_W" depart="842.0" departLane="random" departSpeed="10" arrivalLane="2"> <stop lane="TL2W_2" endPos="750" duration="-19"/> </vehicle>
    <vehicle id="W_S_85" type="standard_car" route="W_S" depart="843.0" departLane="random" departSpeed="10" arrivalLane="1"> <stop lane="TL2S_1" endPos="750" duration="-19"/> </vehicle>
    <vehicle id="E_S_86" type="standard_car" route="E_S" depart="844.0" departLane="random" departSpeed="10" arrivalLane="2"> <stop lane="TL2S_2" endPos="750" duration="-19"/> </vehicle>
    <vehicle id="S_N_87" type="standard_car" route="S_N" depart="846.0" departLane="random" departSpeed="10" arrivalLane="3"> <stop lane="TL2N_3" endPos="750" duration="-19"/> </vehicle>
    <vehicle id="N_S_88" type="standard_car" route="N_S" depart="857.0" departLane="random" departSpeed="10" arrivalLane="1"> <stop lane="TL2S_1" endPos="750" duration="-19"/> </vehicle>
    <vehicle id="W_E_89" type="standard_car" route="W_E" depart="866.0" departLane="random" departSpeed="10" arrivalLane="0"> <stop lane="TL2E_0" endPos="750" duration="-19"/> </vehicle>
    <vehicle id="E_W_90" type="standard_car" route="E_W" depart="866.0" departLane="random" departSpeed="10" arrivalLane="0"> <stop lane="TL2W_0" endPos="750" duration="-19"/> </vehicle>
    <vehicle id="W_E_91" type="standard_car" route="W_E" depart="884.0" departLane="random" departSpeed="10" arrivalLane="3"> <stop lane="TL2E_3" endPos="750" duration="-20"/> </vehicle>
    <vehicle id="E_W_92" type="standard_car" route="E_W" depart="886.0" departLane="random" departSpeed="10" arrivalLane="1"> <stop lane="TL2W_1" endPos="750" duration="-20"/> </vehicle>
    <vehicle id="E_W_93" type="standard_car" route="E_W" depart="888.0" departLane="random" departSpeed="10" arrivalLane="0"> <stop lane="TL2W_0" endPos="750" duration="-20"/> </vehicle>
    <vehicle id="W_E_94" type="standard_car" route="W_E" depart="893.0" departLane="random" departSpeed="10" arrivalLane="2"> <stop lane="TL2E_2" endPos="750" duration="-20"/> </vehicle>
    <vehicle id="E_W_95" type="standard_car" route="E_W" depart="893.0" departLane="random" departSpeed="10" arrivalLane="2"> <stop lane="TL2W_2" endPos="750" duration="-20"/> </vehicle>
    <vehicle id="W_S_96" type="standard_car" route="W_S" depart="894.0" departLane="random" departSpeed="10" arrivalLane="2"> <stop lane="TL2S_2" endPos="750" duration="-20"/> </vehicle>
    <vehicle id="E_W_97" type="standard_car" route="E_W" depart="897.0" departLane="random" departSpeed="10" arrivalLane="0"> <stop lane="TL2W_0" endPos="750" duration="-20"/> </vehicle>
    <vehicle id="W_E_98" type="standard_car" route="W_E" depart="900.0" departLane="random" departSpeed="10" arrivalLane="1"> <stop lane="TL2E_1" endPos="750" duration="-20"/> </vehicle>
    <vehicle id="N_W_99" type="standard_car" route="N_W" depart="907.0" departLane="random" departSpeed="10" arrivalLane="1"> <stop lane="TL2W_1" endPos="750" duration="-20"/> </vehicle>
    <vehicle id="N_S_100" type="standard_car" route="N_S" depart="921.0" departLane="random" departSpeed="10" arrivalLane="3"> <stop lane="TL2S_3" endPos="750" duration="-20"/> </vehicle>
    <vehicle id="N_S_101" type="standard_car" route="N_S" depart="929.0" departLane="random" departSpeed="10" arrivalLane="2"> <stop lane="TL2S_2" endPos="750" duration="-20"/> </vehicle>
    <vehicle id="E_W_102" type="standard_car" route="E_W" depart="934.0" departLane="random" departSpeed="10" arrivalLane="0"> <stop lane="TL2W_0" endPos="750" duration="-20"/> </vehicle>
    <vehicle id="N_S_103" type="standard_car" route="N_S" depart="945.0" departLane="random" departSpeed="10" arrivalLane="3"> <stop lane="TL2S_3" endPos="750" duration="-20"/> </vehicle>
    <vehicle id="E_W_104" type="standard_car" route="E_W" depart="952.0" departLane="random" departSpeed="10" arrivalLane="2"> <stop lane="TL2W_2" endPos="750" duration="-20"/> </vehicle>
    <vehicle id="W_E_105" type="standard_car" route="W_E" depart="961.0" departLane="random" departSpeed="10" arrivalLane="3"> <stop lane="TL2E_3" endPos="750" duration="-20"/> </vehicle>
    <vehicle id="E_W_106" type="standard_car" route="E_W" depart="965.0" departLane="random" departSpeed="10" arrivalLane="2"> <stop lane="TL2W_2" endPos="750" duration="-20"/> </vehicle>
    <vehicle id="W_E_107" type="standard_car" route="W_E" depart="966.0" departLane="random" departSpeed="10" arrivalLane="1"> <stop lane="TL2E_1" endPos="750" duration="-20"/> </vehicle>
    <vehicle id="N_S_108" type="standard_car" route="N_S" depart="968.0" departLane="random" departSpeed="10" arrivalLane="0"> <stop lane="TL2S_0" endPos="750" duration="-20"/> </vehicle>
    <vehicle id="E_W_109" type="standard_car" route="E_W" depart="972.0" departLane="random" departSpeed="10" arrivalLane="0"> <stop lane="TL2W_0" endPos="750" duration="-21"/> </vehicle>
    <vehicle id="S_N_110" type="standard_car" route="S_N" depart="973.0" departLane="random" departSpeed="10" arrivalLane="1"> <stop lane="TL2N_1" endPos="750" duration="-21"/> </vehicle>
    <vehicle id="E_W_111" type="standard_car" route="E_W" depart="979.0" departLane="random" departSpeed="10" arrivalLane="1"> <stop lane="TL2W_1" endPos="750" duration="-21"/> </vehicle>
    <vehicle id="W_E_112" type="standard_car" route="W_E" depart="980.0" departLane="random" departSpeed="10" arrivalLane="1"> <stop lane="TL2E_1" endPos="750" duration="-21"/> </vehicle>
    <vehicle id="N_S_113" type="standard_car" route="N_S" depart="983.0" departLane="random" departSpeed="10" arrivalLane="1"> <stop lane="TL2S_1" endPos="750" duration="-21"/> </vehicle>
    <vehicle id="W_S_114" type="standard_car" route="W_S" depart="993.0" departLane="random" departSpeed="10" arrivalLane="0"> <stop lane="TL2S_0" endPos="750" duration="-21"/> </vehicle>
    <vehicle id="S_N_115" type="standard_car" route="S_N" depart="1001.0" departLane="random" departSpeed="10" arrivalLane="0"> <stop lane="TL2N_0" endPos="750" duration="-21"/> </vehicle>
    <vehicle id="S_N_116" type="standard_car" route="S_N" depart="1003.0" departLane="random" departSpeed="10" arrivalLane="1"> <stop lane="TL2N_1" endPos="750" duration="-21"/> </vehicle>
    <vehicle id="E_W_117" type="standard_car" route="E_W" depart="1010.0" departLane="random" departSpeed="10" arrivalLane="0"> <stop lane="TL2W_0" endPos="750" duration="-21"/> </vehicle>
    <vehicle id="S_N_118" type="standard_car" route="S_N" depart="1022.0" departLane="random" departSpeed="10" arrivalLane="2"> <stop lane="TL2N_2" endPos="750" duration="-21"/> </vehicle>
    <vehicle id="N_S_119" type="standard_car" route="N_S" depart="1022.0" departLane="random" departSpeed="10" arrivalLane="3"> <stop lane="TL2S_3" endPos="750" duration="-21"/> </vehicle>
    <vehicle id="W_E_120" type="standard_car" route="W_E" depart="1029.0" departLane="random" departSpeed="10" arrivalLane="1"> <stop lane="TL2E_1" endPos="750" duration="-21"/> </vehicle>
    <vehicle id="S_N_121" type="standard_car" route="S_N" depart="1030.0" departLane="random" departSpeed="10" arrivalLane="1"> <stop lane="TL2N_1" endPos="750" duration="-21"/> </vehicle>
    <vehicle id="W_E_122" type="standard_car" route="W_E" depart="1034.0" departLane="random" departSpeed="10" arrivalLane="1"> <stop lane="TL2E_1" endPos="750" duration="-21"/> </vehicle>
    <vehicle id="W_S_123" type="standard_car" route="W_S" depart="1041.0" departLane="random" departSpeed="10" arrivalLane="3"> <stop lane="TL2S_3" endPos="750" duration="-21"/> </vehicle>
    <vehicle id="N_S_124" type="standard_car" route="N_S" depart="1044.0" departLane="random" departSpeed="10" arrivalLane="0"> <stop lane="TL2S_0" endPos="750" duration="-21"/> </vehicle>
    <vehicle id="S_N_125" type="standard_car" route="S_N" depart="1047.0" departLane="random" departSpeed="10" arrivalLane="0"> <stop lane="TL2N_0" endPos="750" duration="-21"/> </vehicle>
    <vehicle id="N_S_126" type="standard_car" route="N_S" depart="1048.0" departLane="random" departSpeed="10" arrivalLane="2"> <stop lane="TL2S_2" endPos="750" duration="-21"/> </vehicle>
    <vehicle id="E_W_127" type="standard_car" route="E_W" depart="1063.0" departLane="random" departSpeed="10" arrivalLane="2"> <stop lane="TL2W_2" endPos="750" duration="-21"/> </vehicle>
    <vehicle id="S_N_128" type="standard_car" route="S_N" depart="1065.0" departLane="random" departSpeed="10" arrivalLane="2"> <stop lane="TL2N_2" endPos="750" duration="-21"/> </vehicle>
    <vehicle id="S_N_129" type="standard_car" route="S_N" depart="1071.0" departLane="random" departSpeed="10" arrivalLane="2"> <stop lane="TL2N_2" endPos="750" duration="-21"/> </vehicle>
    <vehicle id="E_W_130" type="standard_car" route="E_W" depart="1074.0" departLane="random" departSpeed="10" arrivalLane="0"> <stop lane="TL2W_0" endPos="750" duration="-21"/> </vehicle>
    <vehicle id="S_N_131" type="standard_car" route="S_N" depart="1079.0" departLane="random" departSpeed="10" arrivalLane="1"> <stop lane="TL2N_1" endPos="750" duration="-22"/> </vehicle>
    <vehicle id="N_S_132" type="standard_car" route="N_S" depart="1083.0" departLane="random" departSpeed="10" arrivalLane="2"> <stop lane="TL2S_2" endPos="750" duration="-22"/> </vehicle>
    <vehicle id="E_W_133" type="standard_car" route="E_W" depart="1091.0" departLane="random" departSpeed="10" arrivalLane="2"> <stop lane="TL2W_2" endPos="750" duration="-22"/> </vehicle>
    <vehicle id="N_W_134" type="standard_car" route="N_W" depart="1094.0" departLane="random" departSpeed="10" arrivalLane="3"> <stop lane="TL2W_3" endPos="750" duration="-22"/> </vehicle>
    <vehicle id="N_W_135" type="standard_car" route="N_W" depart="1095.0" departLane="random" departSpeed="10" arrivalLane="0"> <stop lane="TL2W_0" endPos="750" duration="-22"/> </vehicle>
    <vehicle id="W_E_136" type="standard_car" route="W_E" depart="1095.0" departLane="random" departSpeed="10" arrivalLane="2"> <stop lane="TL2E_2" endPos="750" duration="-22"/> </vehicle>
    <vehicle id="E_W_137" type="standard_car" route="E_W" depart="1101.0" departLane="random" departSpeed="10" arrivalLane="3"> <stop lane="TL2W_3" endPos="750" duration="-22"/> </vehicle>
    <vehicle id="W_E_138" type="standard_car" route="W_E" depart="1101.0" departLane="random" departSpeed="10" arrivalLane="2"> <stop lane="TL2E_2" endPos="750" duration="-22"/> </vehicle>
    <vehicle id="N_S_139" type="standard_car" route="N_S" depart="1101.0" departLane="random" departSpeed="10" arrivalLane="3"> <stop lane="TL2S_3" endPos="750" duration="-22"/> </vehicle>
    <vehicle id="W_S_140" type="standard_car" route="W_S" depart="1103.0" departLane="random" departSpeed="10" arrivalLane="2"> <stop lane="TL2S_2" endPos="750" duration="-22"/> </vehicle>
    <vehicle id="S_N_141" type="standard_car" route="S_N" depart="1105.0" departLane="random" departSpeed="10" arrivalLane="2"> <stop lane="TL2N_2" endPos="750" duration="-22"/> </vehicle>
    <vehicle id="S_N_142" type="standard_car" route="S_N" depart="1109.0" departLane="random" departSpeed="10" arrivalLane="0"> <stop lane="TL2N_0" endPos="750" duration="-22"/> </vehicle>
    <vehicle id="S_N_143" type="standard_car" route="S_N" depart="1110.0" departLane="random" departSpeed="10" arrivalLane="2"> <stop lane="TL2N_2" endPos="750" duration="-22"/> </vehicle>
    <vehicle id="N_S_144" type="standard_car" route="N_S" depart="1112.0" departLane="random" departSpeed="10" arrivalLane="3"> <stop lane="TL2S_3" endPos="750" duration="-22"/> </vehicle>
    <vehicle id="S_E_145" type="standard_car" route="S_E" depart="1115.0" departLane="random" departSpeed="10" arrivalLane="0"> <stop lane="TL2E_0" endPos="750" duration="-22"/> </vehicle>
    <vehicle id="W_E_146" type="standard_car" route="W_E" depart="1118.0" departLane="random" departSpeed="10" arrivalLane="0"> <stop lane="TL2E_0" endPos="750" duration="-22"/> </vehicle>
    <vehicle id="E_W_147" type="standard_car" route="E_W" depart="1126.0" departLane="random" departSpeed="10" arrivalLane="2"> <stop lane="TL2W_2" endPos="750" duration="-22"/> </vehicle>
    <vehicle id="N_S_148" type="standard_car" route="N_S" depart="1129.0" departLane="random" departSpeed="10" arrivalLane="3"> <stop lane="TL2S_3" endPos="750" duration="-22"/> </vehicle>
    <vehicle id="N_S_149" type="standard_car" route="N_S" depart="1131.0" departLane="random" departSpeed="10" arrivalLane="2"> <stop lane="TL2S_2" endPos="750" duration="-22"/> </vehicle>
    <vehicle id="E_W_150" type="standard_car" route="E_W" depart="1136.0" departLane="random" departSpeed="10" arrivalLane="3"> <stop lane="TL2W_3" endPos="750" duration="-22"/> </vehicle>
    <vehicle id="E_S_151" type="standard_car" route="E_S" depart="1137.0" departLane="random" departSpeed="10" arrivalLane="3"> <stop lane="TL2S_3" endPos="750" duration="-22"/> </vehicle>
    <vehicle id="S_N_152" type="standard_car" route="S_N" depart="1138.0" departLane="random" departSpeed="10" arrivalLane="1"> <stop lane="TL2N_1" endPos="750" duration="-22"/> </vehicle>
    <vehicle id="E_W_153" type="standard_car" route="E_W" depart="1144.0" departLane="random" departSpeed="10" arrivalLane="0"> <stop lane="TL2W_0" endPos="750" duration="-22"/> </vehicle>
    <vehicle id="N_W_154" type="standard_car" route="N_W" depart="1150.0" departLane="random" departSpeed="10" arrivalLane="0"> <stop lane="TL2W_0" endPos="750" duration="-22"/> </vehicle>
    <vehicle id="S_N_155" type="standard_car" route="S_N" depart="1153.0" departLane="random" departSpeed="10" arrivalLane="1"> <stop lane="TL2N_1" endPos="750" duration="-22"/> </vehicle>